/*---------------------------------------------------------------------------*\
| =========                 |                                                 |
| \\      /  F ield         | OpenFOAM: The Open Source CFD Toolbox           |
|  \\    /   O peration     | Version:  4.1                                   |
|   \\  /    A nd           | Web:      www.OpenFOAM.org                      |
|    \\/     M anipulation  |                                                 |
\*---------------------------------------------------------------------------*/
Build  : 4.1
Exec   : interFoam
Date   : Mar 12 2019
Time   : 22:54:29
Host   : "gra-login3"
PID    : 1384
Case   : /home/superran/myGitHub/EI-FOAM/mesh/damBreak
nProcs : 1
sigFpe : Enabling floating point exception trapping (FOAM_SIGFPE).
fileModificationChecking : Monitoring run-time modified files using timeStampMaster
allowSystemOperations : Allowing user-supplied system call operations

// * * * * * * * * * * * * * * * * * * * * * * * * * * * * * * * * * * * * * //
Create time

Create mesh for time = 0


PIMPLE: Operating solver in PISO mode

Reading field p_rgh

Reading field U

Reading/calculating face flux field phi

Reading transportProperties

Selecting incompressible transport model Newtonian
Selecting incompressible transport model Newtonian
Selecting turbulence model type laminar

Reading g

Reading hRef
Calculating field g.h

No MRF models present

No finite volume options present

DICPCG:  Solving for pcorr, Initial residual = 0, Final residual = 0, No Iterations 0
time step continuity errors : sum local = 0, global = 0, cumulative = 0
Courant Number mean: 0 max: 0

Starting time loop

Courant Number mean: 0 max: 0
Interface Courant Number mean: 0 max: 0
deltaT = 0.00119048
Time = 0.00119048

PIMPLE: iteration 1
smoothSolver:  Solving for alpha.water, Initial residual = 0, Final residual = 0, No Iterations 0
Phase-1 volume fraction = 0.130194  Min(alpha.water) = 0  Max(alpha.water) = 1
MULES: Correcting alpha.water
MULES: Correcting alpha.water
Phase-1 volume fraction = 0.130194  Min(alpha.water) = 0  Max(alpha.water) = 1
DICPCG:  Solving for p_rgh, Initial residual = 1, Final residual = 0.00312169, No Iterations 1
time step continuity errors : sum local = 0.000863663, global = -1.26728e-12, cumulative = -1.26728e-12
DICPCG:  Solving for p_rgh, Initial residual = 0.00146342, Final residual = 6.18289e-05, No Iterations 13
time step continuity errors : sum local = 3.6494e-05, global = -1.00159e-05, cumulative = -1.00159e-05
DICPCG:  Solving for p_rgh, Initial residual = 5.08541e-05, Final residual = 8.19126e-08, No Iterations 48
time step continuity errors : sum local = 5.88485e-08, global = 1.01685e-08, cumulative = -1.00057e-05
ExecutionTime = 0.04 s  ClockTime = 0 s

Courant Number mean: 0.00124881 max: 0.107249
Interface Courant Number mean: 0 max: 0
deltaT = 0.00139456
Time = 0.00258503

PIMPLE: iteration 1
smoothSolver:  Solving for alpha.water, Initial residual = 0.000282089, Final residual = 1.76373e-12, No Iterations 2
Phase-1 volume fraction = 0.130194  Min(alpha.water) = 0  Max(alpha.water) = 1
MULES: Correcting alpha.water
MULES: Correcting alpha.water
Phase-1 volume fraction = 0.130194  Min(alpha.water) = -4.00828e-10  Max(alpha.water) = 1
DICPCG:  Solving for p_rgh, Initial residual = 0.00309606, Final residual = 0.00010218, No Iterations 2
time step continuity errors : sum local = 8.64267e-05, global = 2.84025e-08, cumulative = -9.97728e-06
DICPCG:  Solving for p_rgh, Initial residual = 0.000211925, Final residual = 9.22202e-06, No Iterations 35
time step continuity errors : sum local = 7.80404e-06, global = -8.60921e-08, cumulative = -1.00634e-05
DICPCG:  Solving for p_rgh, Initial residual = 2.94093e-05, Final residual = 9.59861e-08, No Iterations 43
time step continuity errors : sum local = 8.11988e-08, global = 5.63664e-09, cumulative = -1.00577e-05
ExecutionTime = 0.05 s  ClockTime = 0 s

Courant Number mean: 0.00181513 max: 0.0549796
Interface Courant Number mean: 4.99693e-05 max: 0.0549796
deltaT = 0.001635
Time = 0.00422003

PIMPLE: iteration 1
smoothSolver:  Solving for alpha.water, Initial residual = 0.000190546, Final residual = 8.83224e-09, No Iterations 1
Phase-1 volume fraction = 0.130194  Min(alpha.water) = 0  Max(alpha.water) = 1
MULES: Correcting alpha.water
MULES: Correcting alpha.water
Phase-1 volume fraction = 0.130194  Min(alpha.water) = -1.51616e-13  Max(alpha.water) = 1
DICPCG:  Solving for p_rgh, Initial residual = 0.00263542, Final residual = 6.09915e-05, No Iterations 2
time step continuity errors : sum local = 6.43292e-05, global = 9.49557e-11, cumulative = -1.00576e-05
DICPCG:  Solving for p_rgh, Initial residual = 6.18515e-05, Final residual = 2.43681e-06, No Iterations 36
time step continuity errors : sum local = 2.5685e-06, global = 3.17559e-09, cumulative = -1.00545e-05
DICPCG:  Solving for p_rgh, Initial residual = 2.89198e-06, Final residual = 7.05893e-08, No Iterations 19
time step continuity errors : sum local = 7.44518e-08, global = -5.49025e-09, cumulative = -1.006e-05
ExecutionTime = 0.06 s  ClockTime = 0 s

Courant Number mean: 0.00313725 max: 0.051469
Interface Courant Number mean: 4.24561e-05 max: 0.0434254
deltaT = 0.0019075
Time = 0.00612753

PIMPLE: iteration 1
smoothSolver:  Solving for alpha.water, Initial residual = 0.000225843, Final residual = 6.93851e-14, No Iterations 2
Phase-1 volume fraction = 0.130194  Min(alpha.water) = 0  Max(alpha.water) = 1
MULES: Correcting alpha.water
MULES: Correcting alpha.water
Phase-1 volume fraction = 0.130194  Min(alpha.water) = -7.3674e-14  Max(alpha.water) = 1
DICPCG:  Solving for p_rgh, Initial residual = 0.00332346, Final residual = 0.000146651, No Iterations 1
time step continuity errors : sum local = 0.000193491, global = -1.65691e-08, cumulative = -1.00765e-05
DICPCG:  Solving for p_rgh, Initial residual = 0.000149529, Final residual = 6.72851e-06, No Iterations 10
time step continuity errors : sum local = 8.86256e-06, global = -3.68771e-07, cumulative = -1.04453e-05
DICPCG:  Solving for p_rgh, Initial residual = 7.14233e-06, Final residual = 8.86312e-08, No Iterations 37
time step continuity errors : sum local = 1.16774e-07, global = -1.05796e-08, cumulative = -1.04559e-05
ExecutionTime = 0.06 s  ClockTime = 0 s

Courant Number mean: 0.00514116 max: 0.0598759
Interface Courant Number mean: 0.000132037 max: 0.0475116
deltaT = 0.00219362
Time = 0.00832115

PIMPLE: iteration 1
smoothSolver:  Solving for alpha.water, Initial residual = 0.000321729, Final residual = 4.25075e-13, No Iterations 2
Phase-1 volume fraction = 0.130194  Min(alpha.water) = 0  Max(alpha.water) = 1
MULES: Correcting alpha.water
MULES: Correcting alpha.water
Phase-1 volume fraction = 0.130194  Min(alpha.water) = -3.75846e-10  Max(alpha.water) = 1
DICPCG:  Solving for p_rgh, Initial residual = 0.00488481, Final residual = 0.000156244, No Iterations 1
time step continuity errors : sum local = 0.00025615, global = -7.43221e-09, cumulative = -1.04633e-05
DICPCG:  Solving for p_rgh, Initial residual = 0.00015888, Final residual = 7.44602e-06, No Iterations 9
time step continuity errors : sum local = 1.21699e-05, global = -5.73865e-08, cumulative = -1.05207e-05
DICPCG:  Solving for p_rgh, Initial residual = 8.09528e-06, Final residual = 9.05495e-08, No Iterations 37
time step continuity errors : sum local = 1.48046e-07, global = 1.67025e-09, cumulative = -1.0519e-05
ExecutionTime = 0.07 s  ClockTime = 0 s

Courant Number mean: 0.00792289 max: 0.0732043
Interface Courant Number mean: 0.000283174 max: 0.0656747
deltaT = 0.00260493
Time = 0.0109261

PIMPLE: iteration 1
smoothSolver:  Solving for alpha.water, Initial residual = 0.000479657, Final residual = 2.41187e-12, No Iterations 2
Phase-1 volume fraction = 0.130194  Min(alpha.water) = 0  Max(alpha.water) = 1
MULES: Correcting alpha.water
MULES: Correcting alpha.water
Phase-1 volume fraction = 0.130194  Min(alpha.water) = -2.90097e-09  Max(alpha.water) = 1
DICPCG:  Solving for p_rgh, Initial residual = 0.00740496, Final residual = 0.000178161, No Iterations 1
time step continuity errors : sum local = 0.000392277, global = 3.94737e-08, cumulative = -1.04796e-05
DICPCG:  Solving for p_rgh, Initial residual = 0.000180535, Final residual = 8.48542e-06, No Iterations 9
time step continuity errors : sum local = 1.85894e-05, global = 9.67922e-08, cumulative = -1.03828e-05
DICPCG:  Solving for p_rgh, Initial residual = 1.0106e-05, Final residual = 9.33445e-08, No Iterations 37
time step continuity errors : sum local = 2.04589e-07, global = 5.01847e-09, cumulative = -1.03777e-05
ExecutionTime = 0.08 s  ClockTime = 0 s

Courant Number mean: 0.012248 max: 0.101668
Interface Courant Number mean: 0.000490898 max: 0.0991104
deltaT = 0.00300569
Time = 0.0139318

PIMPLE: iteration 1
smoothSolver:  Solving for alpha.water, Initial residual = 0.000691589, Final residual = 1.104e-11, No Iterations 2
Phase-1 volume fraction = 0.130194  Min(alpha.water) = 0  Max(alpha.water) = 1
MULES: Correcting alpha.water
MULES: Correcting alpha.water
Phase-1 volume fraction = 0.130194  Min(alpha.water) = -1.00727e-08  Max(alpha.water) = 1
DICPCG:  Solving for p_rgh, Initial residual = 0.0108242, Final residual = 0.00020051, No Iterations 1
time step continuity errors : sum local = 0.000564179, global = 4.52725e-08, cumulative = -1.03325e-05
DICPCG:  Solving for p_rgh, Initial residual = 0.000203266, Final residual = 9.63639e-06, No Iterations 10
time step continuity errors : sum local = 2.6922e-05, global = 2.82025e-07, cumulative = -1.00504e-05
DICPCG:  Solving for p_rgh, Initial residual = 1.28362e-05, Final residual = 9.27347e-08, No Iterations 36
time step continuity errors : sum local = 2.593e-07, global = -1.13302e-09, cumulative = -1.00516e-05
ExecutionTime = 0.09 s  ClockTime = 0 s

Courant Number mean: 0.0179215 max: 0.14641
Interface Courant Number mean: 0.000788395 max: 0.143383
deltaT = 0.00360682
Time = 0.0175386

PIMPLE: iteration 1
smoothSolver:  Solving for alpha.water, Initial residual = 0.00102033, Final residual = 5.43983e-11, No Iterations 2
Phase-1 volume fraction = 0.130194  Min(alpha.water) = 0  Max(alpha.water) = 1
MULES: Correcting alpha.water
MULES: Correcting alpha.water
Phase-1 volume fraction = 0.130194  Min(alpha.water) = -2.70148e-08  Max(alpha.water) = 1
DICPCG:  Solving for p_rgh, Initial residual = 0.0161339, Final residual = 0.00023896, No Iterations 1
time step continuity errors : sum local = 0.000927468, global = 6.4781e-08, cumulative = -9.9868e-06
DICPCG:  Solving for p_rgh, Initial residual = 0.000243871, Final residual = 1.14851e-05, No Iterations 10
time step continuity errors : sum local = 4.41079e-05, global = 1.11911e-06, cumulative = -8.86769e-06
DICPCG:  Solving for p_rgh, Initial residual = 1.78305e-05, Final residual = 9.92162e-08, No Iterations 38
time step continuity errors : sum local = 3.81485e-07, global = -6.86048e-08, cumulative = -8.93629e-06
ExecutionTime = 0.1 s  ClockTime = 0 s

Courant Number mean: 0.027009 max: 0.208897
Interface Courant Number mean: 0.00132798 max: 0.208897
deltaT = 0.00405768
Time = 0.0215963

PIMPLE: iteration 1
smoothSolver:  Solving for alpha.water, Initial residual = 0.00140091, Final residual = 1.80124e-10, No Iterations 2
Phase-1 volume fraction = 0.130194  Min(alpha.water) = 0  Max(alpha.water) = 1
MULES: Correcting alpha.water
MULES: Correcting alpha.water
Phase-1 volume fraction = 0.130194  Min(alpha.water) = -3.25968e-07  Max(alpha.water) = 1
DICPCG:  Solving for p_rgh, Initial residual = 0.0223739, Final residual = 0.000265382, No Iterations 1
time step continuity errors : sum local = 0.00124546, global = -1.81863e-08, cumulative = -8.95448e-06
DICPCG:  Solving for p_rgh, Initial residual = 0.000273144, Final residual = 1.31796e-05, No Iterations 10
time step continuity errors : sum local = 6.09396e-05, global = 2.38475e-06, cumulative = -6.56972e-06
DICPCG:  Solving for p_rgh, Initial residual = 2.30487e-05, Final residual = 9.78652e-08, No Iterations 40
time step continuity errors : sum local = 4.5335e-07, global = -7.35406e-08, cumulative = -6.64327e-06
ExecutionTime = 0.1 s  ClockTime = 0 s

Courant Number mean: 0.037386 max: 0.274983
Interface Courant Number mean: 0.0018262 max: 0.274125
deltaT = 0.00473396
Time = 0.0263302

PIMPLE: iteration 1
smoothSolver:  Solving for alpha.water, Initial residual = 0.00196671, Final residual = 5.87633e-10, No Iterations 2
Phase-1 volume fraction = 0.130194  Min(alpha.water) = 0  Max(alpha.water) = 1
MULES: Correcting alpha.water
MULES: Correcting alpha.water
Phase-1 volume fraction = 0.130194  Min(alpha.water) = -1.5129e-08  Max(alpha.water) = 1
DICPCG:  Solving for p_rgh, Initial residual = 0.0310661, Final residual = 0.000253018, No Iterations 1
time step continuity errors : sum local = 0.00153172, global = 1.8016e-07, cumulative = -6.46311e-06
DICPCG:  Solving for p_rgh, Initial residual = 0.000267186, Final residual = 1.29581e-05, No Iterations 11
time step continuity errors : sum local = 7.67511e-05, global = 1.26597e-06, cumulative = -5.19713e-06
DICPCG:  Solving for p_rgh, Initial residual = 3.01753e-05, Final residual = 9.67514e-08, No Iterations 43
time step continuity errors : sum local = 5.7481e-07, global = -2.94162e-08, cumulative = -5.22655e-06
ExecutionTime = 0.11 s  ClockTime = 0 s

Courant Number mean: 0.0533948 max: 0.387575
Interface Courant Number mean: 0.00270623 max: 0.375917
deltaT = 0.00473396
Time = 0.0310642

PIMPLE: iteration 1
smoothSolver:  Solving for alpha.water, Initial residual = 0.0023783, Final residual = 1.53814e-13, No Iterations 3
Phase-1 volume fraction = 0.130194  Min(alpha.water) = 0  Max(alpha.water) = 1
MULES: Correcting alpha.water
MULES: Correcting alpha.water
Phase-1 volume fraction = 0.130194  Min(alpha.water) = -3.27461e-08  Max(alpha.water) = 1
DICPCG:  Solving for p_rgh, Initial residual = 0.0380919, Final residual = 0.000262277, No Iterations 1
time step continuity errors : sum local = 0.00149486, global = 3.27469e-07, cumulative = -4.89908e-06
DICPCG:  Solving for p_rgh, Initial residual = 0.000280246, Final residual = 1.36685e-05, No Iterations 11
time step continuity errors : sum local = 7.58345e-05, global = 5.53816e-06, cumulative = 6.39081e-07
DICPCG:  Solving for p_rgh, Initial residual = 3.33311e-05, Final residual = 8.06155e-08, No Iterations 39
time step continuity errors : sum local = 4.49288e-07, global = -3.76157e-08, cumulative = 6.01465e-07
ExecutionTime = 0.12 s  ClockTime = 0 s

Courant Number mean: 0.0628383 max: 0.432427
Interface Courant Number mean: 0.0032815 max: 0.423438
deltaT = 0.00473396
Time = 0.0357981

PIMPLE: iteration 1
smoothSolver:  Solving for alpha.water, Initial residual = 0.00275582, Final residual = 3.30983e-13, No Iterations 3
Phase-1 volume fraction = 0.130194  Min(alpha.water) = 0  Max(alpha.water) = 1
MULES: Correcting alpha.water
MULES: Correcting alpha.water
Phase-1 volume fraction = 0.130194  Min(alpha.water) = -4.37622e-08  Max(alpha.water) = 1
DICPCG:  Solving for p_rgh, Initial residual = 0.0453717, Final residual = 0.000309212, No Iterations 1
time step continuity errors : sum local = 0.00164489, global = 2.14346e-07, cumulative = 8.15811e-07
DICPCG:  Solving for p_rgh, Initial residual = 0.000337719, Final residual = 1.65236e-05, No Iterations 10
time step continuity errors : sum local = 8.49906e-05, global = 6.50883e-06, cumulative = 7.32464e-06
DICPCG:  Solving for p_rgh, Initial residual = 4.12777e-05, Final residual = 7.21757e-08, No Iterations 40
time step continuity errors : sum local = 3.73249e-07, global = -4.01864e-08, cumulative = 7.28446e-06
ExecutionTime = 0.13 s  ClockTime = 0 s

Courant Number mean: 0.0719253 max: 0.509618
Interface Courant Number mean: 0.00407433 max: 0.499994
deltaT = 0.00473396
Time = 0.0405321

PIMPLE: iteration 1
smoothSolver:  Solving for alpha.water, Initial residual = 0.00311037, Final residual = 5.13815e-10, No Iterations 3
Phase-1 volume fraction = 0.130194  Min(alpha.water) = 0  Max(alpha.water) = 1
MULES: Correcting alpha.water
MULES: Correcting alpha.water
Phase-1 volume fraction = 0.130194  Min(alpha.water) = -2.12188e-08  Max(alpha.water) = 1
DICPCG:  Solving for p_rgh, Initial residual = 0.0515851, Final residual = 0.000363566, No Iterations 1
time step continuity errors : sum local = 0.0017836, global = 1.72687e-07, cumulative = 7.45714e-06
DICPCG:  Solving for p_rgh, Initial residual = 0.000404993, Final residual = 1.87911e-05, No Iterations 10
time step continuity errors : sum local = 8.86138e-05, global = 8.19748e-06, cumulative = 1.56546e-05
DICPCG:  Solving for p_rgh, Initial residual = 5.15305e-05, Final residual = 8.68722e-08, No Iterations 30
time step continuity errors : sum local = 4.1264e-07, global = -1.44608e-07, cumulative = 1.551e-05
ExecutionTime = 0.14 s  ClockTime = 0 s

Courant Number mean: 0.0808705 max: 0.546413
Interface Courant Number mean: 0.00496444 max: 0.537589
deltaT = 0.00473396
Time = 0.045266

PIMPLE: iteration 1
smoothSolver:  Solving for alpha.water, Initial residual = 0.00345542, Final residual = 2.89847e-09, No Iterations 3
Phase-1 volume fraction = 0.130194  Min(alpha.water) = 0  Max(alpha.water) = 1
MULES: Correcting alpha.water
MULES: Correcting alpha.water
Phase-1 volume fraction = 0.130194  Min(alpha.water) = -3.31787e-09  Max(alpha.water) = 1
DICPCG:  Solving for p_rgh, Initial residual = 0.0556415, Final residual = 0.000451241, No Iterations 1
time step continuity errors : sum local = 0.00202393, global = -6.49629e-08, cumulative = 1.54451e-05
DICPCG:  Solving for p_rgh, Initial residual = 0.000504026, Final residual = 2.22356e-05, No Iterations 10
time step continuity errors : sum local = 9.55685e-05, global = 1.12183e-05, cumulative = 2.66633e-05
DICPCG:  Solving for p_rgh, Initial residual = 6.59554e-05, Final residual = 9.1404e-08, No Iterations 30
time step continuity errors : sum local = 3.96701e-07, global = -3.92292e-08, cumulative = 2.66241e-05
ExecutionTime = 0.15 s  ClockTime = 1 s

Courant Number mean: 0.0896789 max: 0.602601
Interface Courant Number mean: 0.00654897 max: 0.57536
deltaT = 0.00473396
Time = 0.05

PIMPLE: iteration 1
smoothSolver:  Solving for alpha.water, Initial residual = 0.00378548, Final residual = 5.59607e-09, No Iterations 3
Phase-1 volume fraction = 0.130194  Min(alpha.water) = 0  Max(alpha.water) = 1
MULES: Correcting alpha.water
MULES: Correcting alpha.water
Phase-1 volume fraction = 0.130194  Min(alpha.water) = -3.25998e-08  Max(alpha.water) = 1
DICPCG:  Solving for p_rgh, Initial residual = 0.0566629, Final residual = 0.000551356, No Iterations 1
time step continuity errors : sum local = 0.00225497, global = 1.92057e-07, cumulative = 2.68162e-05
DICPCG:  Solving for p_rgh, Initial residual = 0.000612879, Final residual = 2.68603e-05, No Iterations 10
time step continuity errors : sum local = 0.00010516, global = 1.61217e-05, cumulative = 4.29379e-05
DICPCG:  Solving for p_rgh, Initial residual = 8.21838e-05, Final residual = 9.81663e-08, No Iterations 31
time step continuity errors : sum local = 3.88952e-07, global = -7.78041e-08, cumulative = 4.28601e-05
ExecutionTime = 0.17 s  ClockTime = 1 s

Courant Number mean: 0.098419 max: 0.654987
Interface Courant Number mean: 0.00739795 max: 0.618782
deltaT = 0.005
Time = 0.055

PIMPLE: iteration 1
smoothSolver:  Solving for alpha.water, Initial residual = 0.00435517, Final residual = 9.83908e-11, No Iterations 4
Phase-1 volume fraction = 0.130194  Min(alpha.water) = 0  Max(alpha.water) = 1
MULES: Correcting alpha.water
MULES: Correcting alpha.water
Phase-1 volume fraction = 0.130194  Min(alpha.water) = -9.03302e-08  Max(alpha.water) = 1
DICPCG:  Solving for p_rgh, Initial residual = 0.0560634, Final residual = 0.000758916, No Iterations 1
time step continuity errors : sum local = 0.00313171, global = -2.37501e-08, cumulative = 4.28364e-05
DICPCG:  Solving for p_rgh, Initial residual = 0.000850641, Final residual = 3.93028e-05, No Iterations 10
time step continuity errors : sum local = 0.000155324, global = 2.50283e-05, cumulative = 6.78646e-05
DICPCG:  Solving for p_rgh, Initial residual = 0.000121578, Final residual = 7.03652e-08, No Iterations 50
time step continuity errors : sum local = 2.82405e-07, global = -3.82123e-09, cumulative = 6.78608e-05
ExecutionTime = 0.18 s  ClockTime = 1 s

Courant Number mean: 0.113855 max: 0.728413
Interface Courant Number mean: 0.00858976 max: 0.701012
deltaT = 0.005625
Time = 0.060625

PIMPLE: iteration 1
smoothSolver:  Solving for alpha.water, Initial residual = 0.00536716, Final residual = 3.68246e-10, No Iterations 4
Phase-1 volume fraction = 0.130194  Min(alpha.water) = 0  Max(alpha.water) = 1
MULES: Correcting alpha.water
MULES: Correcting alpha.water
Phase-1 volume fraction = 0.130194  Min(alpha.water) = -7.22938e-07  Max(alpha.water) = 1.00003
DICPCG:  Solving for p_rgh, Initial residual = 0.0544321, Final residual = 0.00118839, No Iterations 1
time step continuity errors : sum local = 0.00560655, global = 2.54723e-07, cumulative = 6.81156e-05
DICPCG:  Solving for p_rgh, Initial residual = 0.00134276, Final residual = 6.69841e-05, No Iterations 10
time step continuity errors : sum local = 0.000302832, global = 5.39084e-05, cumulative = 0.000122024
DICPCG:  Solving for p_rgh, Initial residual = 0.000199985, Final residual = 9.30697e-08, No Iterations 46
time step continuity errors : sum local = 4.29259e-07, global = 1.63729e-08, cumulative = 0.00012204
ExecutionTime = 0.19 s  ClockTime = 1 s

Courant Number mean: 0.14067 max: 0.886022
Interface Courant Number mean: 0.0114477 max: 0.840408
deltaT = 0.005625
Time = 0.06625

PIMPLE: iteration 1
smoothSolver:  Solving for alpha.water, Initial residual = 0.00584163, Final residual = 1.98299e-09, No Iterations 4
Phase-1 volume fraction = 0.130194  Min(alpha.water) = 0  Max(alpha.water) = 1
MULES: Correcting alpha.water
MULES: Correcting alpha.water
Phase-1 volume fraction = 0.130194  Min(alpha.water) = -4.34525e-06  Max(alpha.water) = 1.00006
DICPCG:  Solving for p_rgh, Initial residual = 0.0435727, Final residual = 0.00143397, No Iterations 1
time step continuity errors : sum local = 0.00638845, global = -4.63787e-07, cumulative = 0.000121577
DICPCG:  Solving for p_rgh, Initial residual = 0.00160903, Final residual = 7.29907e-05, No Iterations 10
time step continuity errors : sum local = 0.000315612, global = 6.58735e-05, cumulative = 0.00018745
DICPCG:  Solving for p_rgh, Initial residual = 0.000232554, Final residual = 8.99085e-08, No Iterations 50
time step continuity errors : sum local = 3.97855e-07, global = -3.48969e-08, cumulative = 0.000187415
ExecutionTime = 0.19 s  ClockTime = 1 s

Courant Number mean: 0.152678 max: 0.959114
Interface Courant Number mean: 0.0132035 max: 0.880892
deltaT = 0.005625
Time = 0.071875

PIMPLE: iteration 1
smoothSolver:  Solving for alpha.water, Initial residual = 0.00625556, Final residual = 3.74214e-09, No Iterations 4
Phase-1 volume fraction = 0.130194  Min(alpha.water) = 0  Max(alpha.water) = 1
MULES: Correcting alpha.water
MULES: Correcting alpha.water
Phase-1 volume fraction = 0.130194  Min(alpha.water) = -5.75492e-06  Max(alpha.water) = 1.00001
DICPCG:  Solving for p_rgh, Initial residual = 0.0399252, Final residual = 0.00117209, No Iterations 1
time step continuity errors : sum local = 0.00551722, global = -1.01374e-06, cumulative = 0.000186401
DICPCG:  Solving for p_rgh, Initial residual = 0.00134076, Final residual = 5.74517e-05, No Iterations 11
time step continuity errors : sum local = 0.000263084, global = 6.1824e-05, cumulative = 0.000248225
DICPCG:  Solving for p_rgh, Initial residual = 0.000203748, Final residual = 9.22912e-08, No Iterations 50
time step continuity errors : sum local = 4.32699e-07, global = -4.01523e-08, cumulative = 0.000248185
ExecutionTime = 0.2 s  ClockTime = 1 s

Courant Number mean: 0.164284 max: 1.17772
Interface Courant Number mean: 0.0147165 max: 0.950215
deltaT = 0.0046875
Time = 0.0765625

PIMPLE: iteration 1
smoothSolver:  Solving for alpha.water, Initial residual = 0.005575, Final residual = 1.88273e-09, No Iterations 4
Phase-1 volume fraction = 0.130194  Min(alpha.water) = -2.62815e-08  Max(alpha.water) = 1
MULES: Correcting alpha.water
MULES: Correcting alpha.water
Phase-1 volume fraction = 0.130194  Min(alpha.water) = -2.62815e-08  Max(alpha.water) = 1
DICPCG:  Solving for p_rgh, Initial residual = 0.0663315, Final residual = 0.000735586, No Iterations 1
time step continuity errors : sum local = 0.00289332, global = -7.99047e-07, cumulative = 0.000247386
DICPCG:  Solving for p_rgh, Initial residual = 0.000854455, Final residual = 3.76086e-05, No Iterations 11
time step continuity errors : sum local = 0.000138952, global = 2.70388e-05, cumulative = 0.000274425
DICPCG:  Solving for p_rgh, Initial residual = 0.000129566, Final residual = 8.75481e-08, No Iterations 49
time step continuity errors : sum local = 3.29881e-07, global = -1.3817e-08, cumulative = 0.000274411
ExecutionTime = 0.21 s  ClockTime = 1 s

Courant Number mean: 0.144626 max: 1.15643
Interface Courant Number mean: 0.0132981 max: 0.830627
deltaT = 0.00390625
Time = 0.0804688

PIMPLE: iteration 1
smoothSolver:  Solving for alpha.water, Initial residual = 0.00491955, Final residual = 6.75228e-10, No Iterations 4
Phase-1 volume fraction = 0.130194  Min(alpha.water) = -2.21038e-08  Max(alpha.water) = 1
MULES: Correcting alpha.water
MULES: Correcting alpha.water
Phase-1 volume fraction = 0.130194  Min(alpha.water) = -6.52655e-07  Max(alpha.water) = 1
DICPCG:  Solving for p_rgh, Initial residual = 0.0497081, Final residual = 0.000901143, No Iterations 1
time step continuity errors : sum local = 0.0022708, global = -3.06785e-07, cumulative = 0.000274104
DICPCG:  Solving for p_rgh, Initial residual = 0.00101574, Final residual = 4.21716e-05, No Iterations 11
time step continuity errors : sum local = 0.00010157, global = 2.01808e-05, cumulative = 0.000294285
DICPCG:  Solving for p_rgh, Initial residual = 0.000132638, Final residual = 9.78722e-08, No Iterations 37
time step continuity errors : sum local = 2.40069e-07, global = 6.68952e-08, cumulative = 0.000294352
ExecutionTime = 0.22 s  ClockTime = 1 s

Courant Number mean: 0.125835 max: 1.10919
Interface Courant Number mean: 0.011152 max: 0.737015
deltaT = 0.00325521
Time = 0.083724

PIMPLE: iteration 1
smoothSolver:  Solving for alpha.water, Initial residual = 0.00429563, Final residual = 2.36007e-10, No Iterations 4
Phase-1 volume fraction = 0.130194  Min(alpha.water) = -1.8995e-08  Max(alpha.water) = 1
MULES: Correcting alpha.water
MULES: Correcting alpha.water
Phase-1 volume fraction = 0.130194  Min(alpha.water) = -4.92455e-07  Max(alpha.water) = 1.00004
DICPCG:  Solving for p_rgh, Initial residual = 0.0385197, Final residual = 0.0010312, No Iterations 1
time step continuity errors : sum local = 0.00173525, global = -1.05879e-07, cumulative = 0.000294246
DICPCG:  Solving for p_rgh, Initial residual = 0.00114795, Final residual = 4.63175e-05, No Iterations 11
time step continuity errors : sum local = 7.54665e-05, global = 1.5333e-05, cumulative = 0.000309579
DICPCG:  Solving for p_rgh, Initial residual = 0.000136385, Final residual = 7.89707e-08, No Iterations 49
time step continuity errors : sum local = 1.30744e-07, global = -3.76377e-09, cumulative = 0.000309575
ExecutionTime = 0.23 s  ClockTime = 1 s

Courant Number mean: 0.108666 max: 1.05981
Interface Courant Number mean: 0.00965651 max: 0.617153
deltaT = 0.00271267
Time = 0.0864366

PIMPLE: iteration 1
smoothSolver:  Solving for alpha.water, Initial residual = 0.00370959, Final residual = 7.40571e-09, No Iterations 3
Phase-1 volume fraction = 0.130194  Min(alpha.water) = -1.66574e-08  Max(alpha.water) = 1
MULES: Correcting alpha.water
MULES: Correcting alpha.water
Phase-1 volume fraction = 0.130194  Min(alpha.water) = -4.73322e-07  Max(alpha.water) = 1
DICPCG:  Solving for p_rgh, Initial residual = 0.0296043, Final residual = 0.000864697, No Iterations 1
time step continuity errors : sum local = 0.00101608, global = -1.84229e-07, cumulative = 0.000309391
DICPCG:  Solving for p_rgh, Initial residual = 0.000955447, Final residual = 3.93228e-05, No Iterations 11
time step continuity errors : sum local = 4.51272e-05, global = 9.7854e-06, cumulative = 0.000319176
DICPCG:  Solving for p_rgh, Initial residual = 0.00010239, Final residual = 8.41087e-08, No Iterations 48
time step continuity errors : sum local = 9.7781e-08, global = -6.12806e-09, cumulative = 0.00031917
ExecutionTime = 0.24 s  ClockTime = 1 s

Courant Number mean: 0.0929985 max: 0.990172
Interface Courant Number mean: 0.00792798 max: 0.62559
deltaT = 0.00271267
Time = 0.0891493

PIMPLE: iteration 1
smoothSolver:  Solving for alpha.water, Initial residual = 0.00379333, Final residual = 7.48639e-09, No Iterations 3
Phase-1 volume fraction = 0.130194  Min(alpha.water) = -1.457e-08  Max(alpha.water) = 1
MULES: Correcting alpha.water
MULES: Correcting alpha.water
Phase-1 volume fraction = 0.130194  Min(alpha.water) = -1.54156e-06  Max(alpha.water) = 1
DICPCG:  Solving for p_rgh, Initial residual = 0.0298808, Final residual = 0.000894075, No Iterations 1
time step continuity errors : sum local = 0.00107045, global = -1.20454e-07, cumulative = 0.00031905
DICPCG:  Solving for p_rgh, Initial residual = 0.000992682, Final residual = 4.87212e-05, No Iterations 11
time step continuity errors : sum local = 5.7e-05, global = 9.61208e-06, cumulative = 0.000328662
DICPCG:  Solving for p_rgh, Initial residual = 0.000115091, Final residual = 9.56207e-08, No Iterations 48
time step continuity errors : sum local = 1.13206e-07, global = -4.7173e-09, cumulative = 0.000328657
ExecutionTime = 0.25 s  ClockTime = 1 s

Courant Number mean: 0.0953981 max: 1.09561
Interface Courant Number mean: 0.00804581 max: 0.641209
deltaT = 0.00217014
Time = 0.0913194

PIMPLE: iteration 1
smoothSolver:  Solving for alpha.water, Initial residual = 0.00313535, Final residual = 2.22667e-09, No Iterations 3
Phase-1 volume fraction = 0.130194  Min(alpha.water) = -1.28438e-08  Max(alpha.water) = 1
MULES: Correcting alpha.water
MULES: Correcting alpha.water
Phase-1 volume fraction = 0.130194  Min(alpha.water) = -1.55761e-06  Max(alpha.water) = 1
DICPCG:  Solving for p_rgh, Initial residual = 0.0296937, Final residual = 0.000601842, No Iterations 1
time step continuity errors : sum local = 0.000514881, global = -8.81202e-08, cumulative = 0.000328569
DICPCG:  Solving for p_rgh, Initial residual = 0.000660941, Final residual = 2.29841e-05, No Iterations 12
time step continuity errors : sum local = 1.91853e-05, global = 4.12357e-06, cumulative = 0.000332693
DICPCG:  Solving for p_rgh, Initial residual = 6.3673e-05, Final residual = 8.24762e-08, No Iterations 47
time step continuity errors : sum local = 6.94977e-08, global = -4.43752e-09, cumulative = 0.000332688
ExecutionTime = 0.26 s  ClockTime = 1 s

Courant Number mean: 0.0777432 max: 0.939919
Interface Courant Number mean: 0.00627752 max: 0.523681
deltaT = 0.00217014
Time = 0.0934896

PIMPLE: iteration 1
smoothSolver:  Solving for alpha.water, Initial residual = 0.00321845, Final residual = 2.24137e-09, No Iterations 3
Phase-1 volume fraction = 0.130194  Min(alpha.water) = -1.14754e-08  Max(alpha.water) = 1
MULES: Correcting alpha.water
MULES: Correcting alpha.water
Phase-1 volume fraction = 0.130194  Min(alpha.water) = -3.33089e-06  Max(alpha.water) = 1
DICPCG:  Solving for p_rgh, Initial residual = 0.0379172, Final residual = 0.000479009, No Iterations 1
time step continuity errors : sum local = 0.000449316, global = -3.77926e-08, cumulative = 0.00033265
DICPCG:  Solving for p_rgh, Initial residual = 0.000537633, Final residual = 2.31074e-05, No Iterations 12
time step continuity errors : sum local = 2.09364e-05, global = 2.62317e-06, cumulative = 0.000335274
DICPCG:  Solving for p_rgh, Initial residual = 6.14915e-05, Final residual = 7.87282e-08, No Iterations 47
time step continuity errors : sum local = 7.1921e-08, global = -1.81159e-09, cumulative = 0.000335272
ExecutionTime = 0.26 s  ClockTime = 1 s

Courant Number mean: 0.0793042 max: 0.997201
Interface Courant Number mean: 0.00682327 max: 0.531684
deltaT = 0.00217014
Time = 0.0956597

PIMPLE: iteration 1
smoothSolver:  Solving for alpha.water, Initial residual = 0.00330442, Final residual = 2.50357e-09, No Iterations 3
Phase-1 volume fraction = 0.130194  Min(alpha.water) = -1.02333e-08  Max(alpha.water) = 1
MULES: Correcting alpha.water
MULES: Correcting alpha.water
Phase-1 volume fraction = 0.130194  Min(alpha.water) = -4.43714e-07  Max(alpha.water) = 1.00001
DICPCG:  Solving for p_rgh, Initial residual = 0.0350804, Final residual = 0.000598301, No Iterations 1
time step continuity errors : sum local = 0.000526368, global = 1.813e-09, cumulative = 0.000335274
DICPCG:  Solving for p_rgh, Initial residual = 0.000666348, Final residual = 2.39689e-05, No Iterations 12
time step continuity errors : sum local = 2.04212e-05, global = 3.5586e-06, cumulative = 0.000338832
DICPCG:  Solving for p_rgh, Initial residual = 6.84004e-05, Final residual = 9.34639e-08, No Iterations 46
time step continuity errors : sum local = 8.03242e-08, global = -2.05183e-09, cumulative = 0.00033883
ExecutionTime = 0.27 s  ClockTime = 1 s

Courant Number mean: 0.0809346 max: 1.06066
Interface Courant Number mean: 0.00717077 max: 0.886614
deltaT = 0.00144676
Time = 0.0971065

PIMPLE: iteration 1
smoothSolver:  Solving for alpha.water, Initial residual = 0.00225802, Final residual = 2.63304e-10, No Iterations 3
Phase-1 volume fraction = 0.130194  Min(alpha.water) = -9.45481e-09  Max(alpha.water) = 1
MULES: Correcting alpha.water
MULES: Correcting alpha.water
Phase-1 volume fraction = 0.130194  Min(alpha.water) = -2.48828e-07  Max(alpha.water) = 1
DICPCG:  Solving for p_rgh, Initial residual = 0.0245652, Final residual = 0.000560195, No Iterations 1
time step continuity errors : sum local = 0.000217521, global = -2.35371e-08, cumulative = 0.000338807
DICPCG:  Solving for p_rgh, Initial residual = 0.000603336, Final residual = 2.30093e-05, No Iterations 12
time step continuity errors : sum local = 8.74796e-06, global = 1.31988e-06, cumulative = 0.000340127
DICPCG:  Solving for p_rgh, Initial residual = 5.4838e-05, Final residual = 8.98403e-08, No Iterations 44
time step continuity errors : sum local = 3.44146e-08, global = -2.55462e-09, cumulative = 0.000340124
ExecutionTime = 0.28 s  ClockTime = 1 s

Courant Number mean: 0.0546557 max: 0.724959
Interface Courant Number mean: 0.00488648 max: 0.652807
deltaT = 0.00144676
Time = 0.0985532

PIMPLE: iteration 1
smoothSolver:  Solving for alpha.water, Initial residual = 0.00229913, Final residual = 2.49743e-10, No Iterations 3
Phase-1 volume fraction = 0.130194  Min(alpha.water) = -8.72798e-09  Max(alpha.water) = 1
MULES: Correcting alpha.water
MULES: Correcting alpha.water
Phase-1 volume fraction = 0.130194  Min(alpha.water) = -2.66651e-07  Max(alpha.water) = 1
DICPCG:  Solving for p_rgh, Initial residual = 0.0229659, Final residual = 0.000594809, No Iterations 1
time step continuity errors : sum local = 0.000223569, global = -8.60003e-09, cumulative = 0.000340115
DICPCG:  Solving for p_rgh, Initial residual = 0.000640732, Final residual = 2.28254e-05, No Iterations 12
time step continuity errors : sum local = 8.42515e-06, global = 1.63993e-06, cumulative = 0.000341755
DICPCG:  Solving for p_rgh, Initial residual = 5.49681e-05, Final residual = 7.30553e-08, No Iterations 31
time step continuity errors : sum local = 2.71097e-08, global = -3.29478e-09, cumulative = 0.000341752
ExecutionTime = 0.29 s  ClockTime = 1 s

Courant Number mean: 0.0553993 max: 0.738623
Interface Courant Number mean: 0.00460499 max: 0.645179
deltaT = 0.00144676
Time = 0.1

PIMPLE: iteration 1
smoothSolver:  Solving for alpha.water, Initial residual = 0.00233736, Final residual = 2.58809e-10, No Iterations 3
Phase-1 volume fraction = 0.130194  Min(alpha.water) = -8.04997e-09  Max(alpha.water) = 1
MULES: Correcting alpha.water
MULES: Correcting alpha.water
Phase-1 volume fraction = 0.130194  Min(alpha.water) = -2.71524e-07  Max(alpha.water) = 1
DICPCG:  Solving for p_rgh, Initial residual = 0.0232814, Final residual = 0.000518094, No Iterations 1
time step continuity errors : sum local = 0.000195476, global = -1.07936e-08, cumulative = 0.000341741
DICPCG:  Solving for p_rgh, Initial residual = 0.000563467, Final residual = 1.95013e-05, No Iterations 12
time step continuity errors : sum local = 7.22118e-06, global = 1.38794e-06, cumulative = 0.000343129
DICPCG:  Solving for p_rgh, Initial residual = 5.22512e-05, Final residual = 8.53768e-08, No Iterations 44
time step continuity errors : sum local = 3.1788e-08, global = -2.1592e-09, cumulative = 0.000343127
ExecutionTime = 0.31 s  ClockTime = 1 s

Courant Number mean: 0.0561273 max: 0.742097
Interface Courant Number mean: 0.00509237 max: 0.693872
deltaT = 0.0016129
Time = 0.101613

PIMPLE: iteration 1
smoothSolver:  Solving for alpha.water, Initial residual = 0.00263336, Final residual = 5.32215e-10, No Iterations 3
Phase-1 volume fraction = 0.130194  Min(alpha.water) = -7.35197e-09  Max(alpha.water) = 1
MULES: Correcting alpha.water
MULES: Correcting alpha.water
Phase-1 volume fraction = 0.130194  Min(alpha.water) = -3.37869e-07  Max(alpha.water) = 1
DICPCG:  Solving for p_rgh, Initial residual = 0.024195, Final residual = 0.000548124, No Iterations 1
time step continuity errors : sum local = 0.000252561, global = -2.28874e-09, cumulative = 0.000343125
DICPCG:  Solving for p_rgh, Initial residual = 0.000604187, Final residual = 1.96799e-05, No Iterations 12
time step continuity errors : sum local = 8.88518e-06, global = 1.96625e-06, cumulative = 0.000345091
DICPCG:  Solving for p_rgh, Initial residual = 5.47128e-05, Final residual = 9.28075e-08, No Iterations 39
time step continuity errors : sum local = 4.21515e-08, global = -3.38604e-09, cumulative = 0.000345088
ExecutionTime = 0.32 s  ClockTime = 1 s

Courant Number mean: 0.063392 max: 0.824586
Interface Courant Number mean: 0.00594044 max: 0.761817
deltaT = 0.00179211
Time = 0.103405

PIMPLE: iteration 1
smoothSolver:  Solving for alpha.water, Initial residual = 0.00296002, Final residual = 1.10309e-09, No Iterations 3
Phase-1 volume fraction = 0.130194  Min(alpha.water) = -6.64314e-09  Max(alpha.water) = 1
MULES: Correcting alpha.water
MULES: Correcting alpha.water
Phase-1 volume fraction = 0.130194  Min(alpha.water) = -4.08597e-07  Max(alpha.water) = 1.00001
DICPCG:  Solving for p_rgh, Initial residual = 0.0252855, Final residual = 0.00064334, No Iterations 1
time step continuity errors : sum local = 0.000358257, global = -1.66115e-08, cumulative = 0.000345071
DICPCG:  Solving for p_rgh, Initial residual = 0.00071037, Final residual = 3.4728e-05, No Iterations 11
time step continuity errors : sum local = 1.89435e-05, global = 2.46163e-06, cumulative = 0.000347533
DICPCG:  Solving for p_rgh, Initial residual = 7.6156e-05, Final residual = 9.83341e-08, No Iterations 44
time step continuity errors : sum local = 5.39997e-08, global = -3.78346e-09, cumulative = 0.000347529
ExecutionTime = 0.33 s  ClockTime = 1 s

Courant Number mean: 0.0714177 max: 0.906883
Interface Courant Number mean: 0.00671553 max: 0.906883
deltaT = 0.00194146
Time = 0.105346

PIMPLE: iteration 1
smoothSolver:  Solving for alpha.water, Initial residual = 0.00326805, Final residual = 1.98635e-09, No Iterations 3
Phase-1 volume fraction = 0.130194  Min(alpha.water) = -5.94742e-09  Max(alpha.water) = 1
MULES: Correcting alpha.water
MULES: Correcting alpha.water
Phase-1 volume fraction = 0.130194  Min(alpha.water) = -4.28608e-07  Max(alpha.water) = 1.00001
DICPCG:  Solving for p_rgh, Initial residual = 0.0286108, Final residual = 0.00067765, No Iterations 1
time step continuity errors : sum local = 0.000450077, global = -2.01051e-08, cumulative = 0.000347509
DICPCG:  Solving for p_rgh, Initial residual = 0.000759507, Final residual = 3.47695e-05, No Iterations 11
time step continuity errors : sum local = 2.25511e-05, global = 3.22025e-06, cumulative = 0.000350729
DICPCG:  Solving for p_rgh, Initial residual = 8.23264e-05, Final residual = 7.2475e-08, No Iterations 45
time step continuity errors : sum local = 4.73595e-08, global = -5.72545e-09, cumulative = 0.000350723
ExecutionTime = 0.34 s  ClockTime = 1 s

Courant Number mean: 0.0784972 max: 0.975745
Interface Courant Number mean: 0.00723229 max: 0.975745
deltaT = 0.00194146
Time = 0.107288

PIMPLE: iteration 1
smoothSolver:  Solving for alpha.water, Initial residual = 0.00334153, Final residual = 2.14788e-09, No Iterations 3
Phase-1 volume fraction = 0.130194  Min(alpha.water) = -5.31691e-09  Max(alpha.water) = 1
MULES: Correcting alpha.water
MULES: Correcting alpha.water
Phase-1 volume fraction = 0.130194  Min(alpha.water) = -2.907e-07  Max(alpha.water) = 1.00003
DICPCG:  Solving for p_rgh, Initial residual = 0.0273205, Final residual = 0.000688357, No Iterations 1
time step continuity errors : sum local = 0.000460154, global = -3.26264e-08, cumulative = 0.000350691
DICPCG:  Solving for p_rgh, Initial residual = 0.000769304, Final residual = 2.7492e-05, No Iterations 12
time step continuity errors : sum local = 1.7982e-05, global = 3.13496e-06, cumulative = 0.000353826
DICPCG:  Solving for p_rgh, Initial residual = 7.94062e-05, Final residual = 8.5853e-08, No Iterations 45
time step continuity errors : sum local = 5.6616e-08, global = -5.39853e-09, cumulative = 0.00035382
ExecutionTime = 0.35 s  ClockTime = 1 s

Courant Number mean: 0.0797004 max: 0.970647
Interface Courant Number mean: 0.00691237 max: 0.970647
deltaT = 0.00194146
Time = 0.109229

PIMPLE: iteration 1
smoothSolver:  Solving for alpha.water, Initial residual = 0.00341654, Final residual = 2.42116e-09, No Iterations 3
Phase-1 volume fraction = 0.130194  Min(alpha.water) = -5.22076e-09  Max(alpha.water) = 1
MULES: Correcting alpha.water
MULES: Correcting alpha.water
Phase-1 volume fraction = 0.130194  Min(alpha.water) = -3.83929e-07  Max(alpha.water) = 1.00001
DICPCG:  Solving for p_rgh, Initial residual = 0.0290035, Final residual = 0.000597067, No Iterations 1
time step continuity errors : sum local = 0.000423715, global = -2.18108e-08, cumulative = 0.000353798
DICPCG:  Solving for p_rgh, Initial residual = 0.000674261, Final residual = 2.30099e-05, No Iterations 12
time step continuity errors : sum local = 1.59133e-05, global = 2.67138e-06, cumulative = 0.00035647
DICPCG:  Solving for p_rgh, Initial residual = 7.30662e-05, Final residual = 9.81881e-08, No Iterations 45
time step continuity errors : sum local = 6.84401e-08, global = -5.48296e-09, cumulative = 0.000356464
ExecutionTime = 0.35 s  ClockTime = 1 s

Courant Number mean: 0.0809499 max: 0.972629
Interface Courant Number mean: 0.00735408 max: 0.972629
deltaT = 0.00194146
Time = 0.111171

PIMPLE: iteration 1
smoothSolver:  Solving for alpha.water, Initial residual = 0.00346718, Final residual = 2.69598e-09, No Iterations 3
Phase-1 volume fraction = 0.130194  Min(alpha.water) = -5.10569e-09  Max(alpha.water) = 1
MULES: Correcting alpha.water
MULES: Correcting alpha.water
Phase-1 volume fraction = 0.130194  Min(alpha.water) = -1.16348e-06  Max(alpha.water) = 1.00001
DICPCG:  Solving for p_rgh, Initial residual = 0.0341564, Final residual = 0.000580652, No Iterations 1
time step continuity errors : sum local = 0.000429739, global = -1.51752e-08, cumulative = 0.000356449
DICPCG:  Solving for p_rgh, Initial residual = 0.000666994, Final residual = 2.61522e-05, No Iterations 12
time step continuity errors : sum local = 1.87521e-05, global = 2.47974e-06, cumulative = 0.000358929
DICPCG:  Solving for p_rgh, Initial residual = 7.71611e-05, Final residual = 9.69819e-08, No Iterations 45
time step continuity errors : sum local = 7.00748e-08, global = -4.44603e-09, cumulative = 0.000358924
ExecutionTime = 0.36 s  ClockTime = 1 s

Courant Number mean: 0.0822692 max: 0.984847
Interface Courant Number mean: 0.00737596 max: 0.984847
deltaT = 0.00194146
Time = 0.113112

PIMPLE: iteration 1
smoothSolver:  Solving for alpha.water, Initial residual = 0.00349704, Final residual = 2.86996e-09, No Iterations 3
Phase-1 volume fraction = 0.130194  Min(alpha.water) = -4.95214e-09  Max(alpha.water) = 1
MULES: Correcting alpha.water
MULES: Correcting alpha.water
Phase-1 volume fraction = 0.130194  Min(alpha.water) = -1.09976e-06  Max(alpha.water) = 1.00002
DICPCG:  Solving for p_rgh, Initial residual = 0.0311443, Final residual = 0.000610324, No Iterations 1
time step continuity errors : sum local = 0.000430472, global = -1.10774e-08, cumulative = 0.000358913
DICPCG:  Solving for p_rgh, Initial residual = 0.000700472, Final residual = 2.39603e-05, No Iterations 12
time step continuity errors : sum local = 1.64436e-05, global = 3.15022e-06, cumulative = 0.000362064
DICPCG:  Solving for p_rgh, Initial residual = 7.72875e-05, Final residual = 9.2422e-08, No Iterations 41
time step continuity errors : sum local = 6.39237e-08, global = 7.34075e-09, cumulative = 0.000362071
ExecutionTime = 0.37 s  ClockTime = 1 s

Courant Number mean: 0.0834946 max: 1.02693
Interface Courant Number mean: 0.0070007 max: 0.991531
deltaT = 0.00184438
Time = 0.114957

PIMPLE: iteration 1
smoothSolver:  Solving for alpha.water, Initial residual = 0.00339244, Final residual = 2.18287e-09, No Iterations 3
Phase-1 volume fraction = 0.130194  Min(alpha.water) = -4.77863e-09  Max(alpha.water) = 1
MULES: Correcting alpha.water
MULES: Correcting alpha.water
Phase-1 volume fraction = 0.130194  Min(alpha.water) = -8.67935e-07  Max(alpha.water) = 1.00001
DICPCG:  Solving for p_rgh, Initial residual = 0.0297883, Final residual = 0.000552314, No Iterations 1
time step continuity errors : sum local = 0.000347511, global = -1.05355e-08, cumulative = 0.00036206
DICPCG:  Solving for p_rgh, Initial residual = 0.000629693, Final residual = 2.12421e-05, No Iterations 12
time step continuity errors : sum local = 1.30204e-05, global = 2.52849e-06, cumulative = 0.000364589
DICPCG:  Solving for p_rgh, Initial residual = 6.55852e-05, Final residual = 9.53693e-08, No Iterations 45
time step continuity errors : sum local = 5.89179e-08, global = -2.9455e-09, cumulative = 0.000364586
ExecutionTime = 0.38 s  ClockTime = 1 s

Courant Number mean: 0.0802482 max: 1.02533
Interface Courant Number mean: 0.00663457 max: 0.991628
deltaT = 0.00175217
Time = 0.116709

PIMPLE: iteration 1
smoothSolver:  Solving for alpha.water, Initial residual = 0.00327379, Final residual = 1.7158e-09, No Iterations 3
Phase-1 volume fraction = 0.130194  Min(alpha.water) = -4.59424e-09  Max(alpha.water) = 1
MULES: Correcting alpha.water
MULES: Correcting alpha.water
Phase-1 volume fraction = 0.130194  Min(alpha.water) = -5.27649e-07  Max(alpha.water) = 1
DICPCG:  Solving for p_rgh, Initial residual = 0.028456, Final residual = 0.000560946, No Iterations 1
time step continuity errors : sum local = 0.000315247, global = -3.78661e-08, cumulative = 0.000364548
DICPCG:  Solving for p_rgh, Initial residual = 0.000636419, Final residual = 2.15612e-05, No Iterations 12
time step continuity errors : sum local = 1.18192e-05, global = 2.02201e-06, cumulative = 0.00036657
DICPCG:  Solving for p_rgh, Initial residual = 6.45233e-05, Final residual = 6.91433e-08, No Iterations 45
time step continuity errors : sum local = 3.81923e-08, global = -3.97694e-09, cumulative = 0.000366566
ExecutionTime = 0.39 s  ClockTime = 1 s

Courant Number mean: 0.0770304 max: 1.02327
Interface Courant Number mean: 0.00665576 max: 0.984198
deltaT = 0.00166456
Time = 0.118373

PIMPLE: iteration 1
smoothSolver:  Solving for alpha.water, Initial residual = 0.00314516, Final residual = 1.31832e-09, No Iterations 3
Phase-1 volume fraction = 0.130194  Min(alpha.water) = -4.40561e-09  Max(alpha.water) = 1
MULES: Correcting alpha.water
MULES: Correcting alpha.water
Phase-1 volume fraction = 0.130194  Min(alpha.water) = -2.86418e-07  Max(alpha.water) = 1
DICPCG:  Solving for p_rgh, Initial residual = 0.02453, Final residual = 0.000598587, No Iterations 1
time step continuity errors : sum local = 0.000297094, global = -2.23297e-08, cumulative = 0.000366544
DICPCG:  Solving for p_rgh, Initial residual = 0.000671626, Final residual = 3.21285e-05, No Iterations 11
time step continuity errors : sum local = 1.56238e-05, global = 1.58122e-06, cumulative = 0.000368125
DICPCG:  Solving for p_rgh, Initial residual = 7.66795e-05, Final residual = 9.51055e-08, No Iterations 44
time step continuity errors : sum local = 4.65877e-08, global = -1.60339e-09, cumulative = 0.000368123
ExecutionTime = 0.4 s  ClockTime = 1 s

Courant Number mean: 0.0738955 max: 1.01793
Interface Courant Number mean: 0.00620647 max: 0.969746
deltaT = 0.00158133
Time = 0.119955

PIMPLE: iteration 1
smoothSolver:  Solving for alpha.water, Initial residual = 0.00301556, Final residual = 9.85837e-10, No Iterations 3
Phase-1 volume fraction = 0.130194  Min(alpha.water) = -4.21739e-09  Max(alpha.water) = 1
MULES: Correcting alpha.water
MULES: Correcting alpha.water
Phase-1 volume fraction = 0.130194  Min(alpha.water) = -1.79511e-07  Max(alpha.water) = 1.00003
DICPCG:  Solving for p_rgh, Initial residual = 0.0229233, Final residual = 0.000610122, No Iterations 1
time step continuity errors : sum local = 0.000273368, global = -1.13314e-08, cumulative = 0.000368112
DICPCG:  Solving for p_rgh, Initial residual = 0.000686841, Final residual = 2.53447e-05, No Iterations 12
time step continuity errors : sum local = 1.11458e-05, global = 1.45687e-06, cumulative = 0.000369569
DICPCG:  Solving for p_rgh, Initial residual = 6.92122e-05, Final residual = 8.84483e-08, No Iterations 44
time step continuity errors : sum local = 3.91816e-08, global = -2.4454e-09, cumulative = 0.000369566
ExecutionTime = 0.41 s  ClockTime = 1 s

Courant Number mean: 0.0709237 max: 1.00785
Interface Courant Number mean: 0.00596835 max: 0.947959
deltaT = 0.00150226
Time = 0.121457

PIMPLE: iteration 1
smoothSolver:  Solving for alpha.water, Initial residual = 0.00287852, Final residual = 7.29647e-10, No Iterations 3
Phase-1 volume fraction = 0.130194  Min(alpha.water) = -4.03282e-09  Max(alpha.water) = 1
MULES: Correcting alpha.water
MULES: Correcting alpha.water
Phase-1 volume fraction = 0.130194  Min(alpha.water) = -1.27547e-07  Max(alpha.water) = 1.00001
DICPCG:  Solving for p_rgh, Initial residual = 0.0210564, Final residual = 0.00057601, No Iterations 1
time step continuity errors : sum local = 0.000234476, global = -8.05205e-09, cumulative = 0.000369558
DICPCG:  Solving for p_rgh, Initial residual = 0.000657913, Final residual = 2.43981e-05, No Iterations 12
time step continuity errors : sum local = 9.77626e-06, global = 1.25515e-06, cumulative = 0.000370814
DICPCG:  Solving for p_rgh, Initial residual = 6.55988e-05, Final residual = 9.20949e-08, No Iterations 43
time step continuity errors : sum local = 3.71804e-08, global = -2.42483e-09, cumulative = 0.000370811
ExecutionTime = 0.41 s  ClockTime = 1 s

Courant Number mean: 0.0680643 max: 0.993322
Interface Courant Number mean: 0.00558322 max: 0.917995
deltaT = 0.00150226
Time = 0.122959

PIMPLE: iteration 1
smoothSolver:  Solving for alpha.water, Initial residual = 0.00292533, Final residual = 7.20724e-10, No Iterations 3
Phase-1 volume fraction = 0.130194  Min(alpha.water) = -3.8446e-09  Max(alpha.water) = 1
MULES: Correcting alpha.water
MULES: Correcting alpha.water
Phase-1 volume fraction = 0.130194  Min(alpha.water) = -1.30257e-07  Max(alpha.water) = 1.00002
DICPCG:  Solving for p_rgh, Initial residual = 0.0221972, Final residual = 0.000621619, No Iterations 1
time step continuity errors : sum local = 0.000259083, global = -6.0288e-09, cumulative = 0.000370805
DICPCG:  Solving for p_rgh, Initial residual = 0.000716131, Final residual = 3.57605e-05, No Iterations 8
time step continuity errors : sum local = 1.46593e-05, global = 1.39507e-07, cumulative = 0.000370945
DICPCG:  Solving for p_rgh, Initial residual = 8.03961e-05, Final residual = 8.64023e-08, No Iterations 45
time step continuity errors : sum local = 3.56083e-08, global = -2.6827e-09, cumulative = 0.000370942
ExecutionTime = 0.42 s  ClockTime = 1 s

Courant Number mean: 0.0686872 max: 1.02949
Interface Courant Number mean: 0.00539863 max: 0.927761
deltaT = 0.0014232
Time = 0.124382

PIMPLE: iteration 1
smoothSolver:  Solving for alpha.water, Initial residual = 0.00280344, Final residual = 5.34219e-10, No Iterations 3
Phase-1 volume fraction = 0.130194  Min(alpha.water) = -3.66445e-09  Max(alpha.water) = 1
MULES: Correcting alpha.water
MULES: Correcting alpha.water
Phase-1 volume fraction = 0.130194  Min(alpha.water) = -1.0626e-07  Max(alpha.water) = 1.00001
DICPCG:  Solving for p_rgh, Initial residual = 0.0212192, Final residual = 0.000565089, No Iterations 1
time step continuity errors : sum local = 0.000217169, global = -3.06934e-09, cumulative = 0.000370939
DICPCG:  Solving for p_rgh, Initial residual = 0.000656038, Final residual = 3.25311e-05, No Iterations 8
time step continuity errors : sum local = 1.23245e-05, global = 7.45946e-08, cumulative = 0.000371013
DICPCG:  Solving for p_rgh, Initial residual = 7.54137e-05, Final residual = 9.41294e-08, No Iterations 45
time step continuity errors : sum local = 3.58494e-08, global = -3.3925e-09, cumulative = 0.00037101
ExecutionTime = 0.43 s  ClockTime = 1 s

Courant Number mean: 0.0656555 max: 1.00373
Interface Courant Number mean: 0.00507045 max: 0.877185
deltaT = 0.00134829
Time = 0.125731

PIMPLE: iteration 1
smoothSolver:  Solving for alpha.water, Initial residual = 0.00269393, Final residual = 3.94497e-10, No Iterations 3
Phase-1 volume fraction = 0.130194  Min(alpha.water) = -3.49337e-09  Max(alpha.water) = 1
MULES: Correcting alpha.water
MULES: Correcting alpha.water
Phase-1 volume fraction = 0.130194  Min(alpha.water) = -8.46907e-08  Max(alpha.water) = 1
DICPCG:  Solving for p_rgh, Initial residual = 0.0210309, Final residual = 0.000442286, No Iterations 1
time step continuity errors : sum local = 0.000161498, global = -1.4441e-09, cumulative = 0.000371009
DICPCG:  Solving for p_rgh, Initial residual = 0.00051184, Final residual = 2.51235e-05, No Iterations 8
time step continuity errors : sum local = 9.02264e-06, global = 4.58731e-08, cumulative = 0.000371054
DICPCG:  Solving for p_rgh, Initial residual = 6.01998e-05, Final residual = 9.22147e-08, No Iterations 45
time step continuity errors : sum local = 3.32904e-08, global = -1.27856e-09, cumulative = 0.000371053
ExecutionTime = 0.44 s  ClockTime = 1 s

Courant Number mean: 0.0626576 max: 0.973487
Interface Courant Number mean: 0.00486622 max: 0.922564
deltaT = 0.00134829
Time = 0.127079

PIMPLE: iteration 1
smoothSolver:  Solving for alpha.water, Initial residual = 0.0027284, Final residual = 4.00526e-10, No Iterations 3
Phase-1 volume fraction = 0.130194  Min(alpha.water) = -3.32316e-09  Max(alpha.water) = 1
MULES: Correcting alpha.water
MULES: Correcting alpha.water
Phase-1 volume fraction = 0.130194  Min(alpha.water) = -7.46893e-08  Max(alpha.water) = 1
DICPCG:  Solving for p_rgh, Initial residual = 0.0242554, Final residual = 0.00041561, No Iterations 1
time step continuity errors : sum local = 0.00015828, global = -3.9901e-10, cumulative = 0.000371053
DICPCG:  Solving for p_rgh, Initial residual = 0.000482191, Final residual = 2.38575e-05, No Iterations 8
time step continuity errors : sum local = 8.90797e-06, global = 2.61249e-08, cumulative = 0.000371079
DICPCG:  Solving for p_rgh, Initial residual = 6.85031e-05, Final residual = 8.18056e-08, No Iterations 45
time step continuity errors : sum local = 3.07279e-08, global = 1.2378e-09, cumulative = 0.00037108
ExecutionTime = 0.45 s  ClockTime = 1 s

Courant Number mean: 0.0630985 max: 0.987485
Interface Courant Number mean: 0.00505494 max: 0.91219
deltaT = 0.00134829
Time = 0.128427

PIMPLE: iteration 1
smoothSolver:  Solving for alpha.water, Initial residual = 0.0027574, Final residual = 4.08922e-10, No Iterations 3
Phase-1 volume fraction = 0.130194  Min(alpha.water) = -3.15483e-09  Max(alpha.water) = 1
MULES: Correcting alpha.water
MULES: Correcting alpha.water
Phase-1 volume fraction = 0.130194  Min(alpha.water) = -6.75437e-08  Max(alpha.water) = 1
DICPCG:  Solving for p_rgh, Initial residual = 0.0226495, Final residual = 0.000462445, No Iterations 1
time step continuity errors : sum local = 0.00017119, global = 4.31463e-09, cumulative = 0.000371084
DICPCG:  Solving for p_rgh, Initial residual = 0.000544385, Final residual = 2.62415e-05, No Iterations 8
time step continuity errors : sum local = 9.54736e-06, global = 2.87935e-08, cumulative = 0.000371113
DICPCG:  Solving for p_rgh, Initial residual = 7.69338e-05, Final residual = 9.44997e-08, No Iterations 45
time step continuity errors : sum local = 3.46344e-08, global = 1.61292e-09, cumulative = 0.000371115
ExecutionTime = 0.45 s  ClockTime = 1 s

Courant Number mean: 0.063552 max: 0.988859
Interface Courant Number mean: 0.00524023 max: 0.880842
deltaT = 0.00134829
Time = 0.129776

PIMPLE: iteration 1
smoothSolver:  Solving for alpha.water, Initial residual = 0.00278216, Final residual = 4.10613e-10, No Iterations 3
Phase-1 volume fraction = 0.130194  Min(alpha.water) = -2.98915e-09  Max(alpha.water) = 1
MULES: Correcting alpha.water
MULES: Correcting alpha.water
Phase-1 volume fraction = 0.130194  Min(alpha.water) = -4.90363e-08  Max(alpha.water) = 1.00005
DICPCG:  Solving for p_rgh, Initial residual = 0.0225985, Final residual = 0.000507322, No Iterations 1
time step continuity errors : sum local = 0.000185023, global = 2.81273e-09, cumulative = 0.000371118
DICPCG:  Solving for p_rgh, Initial residual = 0.000628199, Final residual = 2.65299e-05, No Iterations 13
time step continuity errors : sum local = 9.50143e-06, global = 7.09196e-07, cumulative = 0.000371827
DICPCG:  Solving for p_rgh, Initial residual = 0.000107756, Final residual = 9.49413e-08, No Iterations 49
time step continuity errors : sum local = 3.43117e-08, global = 1.05287e-10, cumulative = 0.000371827
ExecutionTime = 0.46 s  ClockTime = 1 s

Courant Number mean: 0.0640573 max: 0.945235
Interface Courant Number mean: 0.00536445 max: 0.945235
deltaT = 0.00134829
Time = 0.131124

PIMPLE: iteration 1
smoothSolver:  Solving for alpha.water, Initial residual = 0.00281796, Final residual = 4.07641e-10, No Iterations 3
Phase-1 volume fraction = 0.130194  Min(alpha.water) = -2.92225e-09  Max(alpha.water) = 1
MULES: Correcting alpha.water
MULES: Correcting alpha.water
Phase-1 volume fraction = 0.130194  Min(alpha.water) = -1.48153e-07  Max(alpha.water) = 1.00001
DICPCG:  Solving for p_rgh, Initial residual = 0.0205891, Final residual = 0.000533484, No Iterations 1
time step continuity errors : sum local = 0.000189654, global = -6.89793e-09, cumulative = 0.00037182
DICPCG:  Solving for p_rgh, Initial residual = 0.000655459, Final residual = 3.2113e-05, No Iterations 9
time step continuity errors : sum local = 1.12323e-05, global = 9.00586e-08, cumulative = 0.00037191
DICPCG:  Solving for p_rgh, Initial residual = 0.000102064, Final residual = 8.18191e-08, No Iterations 49
time step continuity errors : sum local = 2.8812e-08, global = 8.51069e-11, cumulative = 0.00037191
ExecutionTime = 0.47 s  ClockTime = 1 s

Courant Number mean: 0.0646003 max: 0.895453
Interface Courant Number mean: 0.00554946 max: 0.895453
deltaT = 0.00145201
Time = 0.132576

PIMPLE: iteration 1
smoothSolver:  Solving for alpha.water, Initial residual = 0.00306465, Final residual = 6.28408e-10, No Iterations 3
Phase-1 volume fraction = 0.130194  Min(alpha.water) = -2.89583e-09  Max(alpha.water) = 1
MULES: Correcting alpha.water
MULES: Correcting alpha.water
Phase-1 volume fraction = 0.130194  Min(alpha.water) = -1.81882e-07  Max(alpha.water) = 1.00001
DICPCG:  Solving for p_rgh, Initial residual = 0.0218139, Final residual = 0.000588742, No Iterations 1
time step continuity errors : sum local = 0.000239998, global = 4.60769e-09, cumulative = 0.000371915
DICPCG:  Solving for p_rgh, Initial residual = 0.000738783, Final residual = 3.53008e-05, No Iterations 13
time step continuity errors : sum local = 1.41599e-05, global = 7.0451e-07, cumulative = 0.000372619
DICPCG:  Solving for p_rgh, Initial residual = 0.000121416, Final residual = 6.59485e-08, No Iterations 44
time step continuity errors : sum local = 2.67464e-08, global = 3.19274e-09, cumulative = 0.000372623
ExecutionTime = 0.48 s  ClockTime = 1 s

Courant Number mean: 0.0702483 max: 0.893632
Interface Courant Number mean: 0.00629086 max: 0.893632
deltaT = 0.00158401
Time = 0.13416

PIMPLE: iteration 1
smoothSolver:  Solving for alpha.water, Initial residual = 0.003381, Final residual = 1.04128e-09, No Iterations 3
Phase-1 volume fraction = 0.130194  Min(alpha.water) = -2.85113e-09  Max(alpha.water) = 1
MULES: Correcting alpha.water
MULES: Correcting alpha.water
Phase-1 volume fraction = 0.130194  Min(alpha.water) = -1.84122e-07  Max(alpha.water) = 1.00004
DICPCG:  Solving for p_rgh, Initial residual = 0.0210363, Final residual = 0.000665037, No Iterations 1
time step continuity errors : sum local = 0.000317554, global = 7.28788e-09, cumulative = 0.00037263
DICPCG:  Solving for p_rgh, Initial residual = 0.000782339, Final residual = 3.72799e-05, No Iterations 13
time step continuity errors : sum local = 1.75492e-05, global = 1.2661e-06, cumulative = 0.000373896
DICPCG:  Solving for p_rgh, Initial residual = 0.000128743, Final residual = 8.52738e-08, No Iterations 49
time step continuity errors : sum local = 4.07382e-08, global = -8.71215e-10, cumulative = 0.000373895
ExecutionTime = 0.49 s  ClockTime = 1 s

Courant Number mean: 0.0773642 max: 0.912932
Interface Courant Number mean: 0.00668647 max: 0.912932
deltaT = 0.00158401
Time = 0.135744

PIMPLE: iteration 1
smoothSolver:  Solving for alpha.water, Initial residual = 0.00340336, Final residual = 1.05004e-09, No Iterations 3
Phase-1 volume fraction = 0.130194  Min(alpha.water) = -2.79263e-09  Max(alpha.water) = 1
MULES: Correcting alpha.water
MULES: Correcting alpha.water
Phase-1 volume fraction = 0.130194  Min(alpha.water) = -1.02165e-07  Max(alpha.water) = 1.00002
DICPCG:  Solving for p_rgh, Initial residual = 0.0202857, Final residual = 0.000620672, No Iterations 1
time step continuity errors : sum local = 0.000298324, global = -1.72452e-08, cumulative = 0.000373878
DICPCG:  Solving for p_rgh, Initial residual = 0.000743475, Final residual = 3.27894e-05, No Iterations 13
time step continuity errors : sum local = 1.55337e-05, global = 1.21492e-06, cumulative = 0.000375093
DICPCG:  Solving for p_rgh, Initial residual = 0.000117697, Final residual = 9.33086e-08, No Iterations 44
time step continuity errors : sum local = 4.47722e-08, global = 5.34536e-09, cumulative = 0.000375098
ExecutionTime = 0.5 s  ClockTime = 1 s

Courant Number mean: 0.0779961 max: 0.877561
Interface Courant Number mean: 0.00655538 max: 0.877561
deltaT = 0.00158401
Time = 0.137328

PIMPLE: iteration 1
smoothSolver:  Solving for alpha.water, Initial residual = 0.00342504, Final residual = 1.05735e-09, No Iterations 3
Phase-1 volume fraction = 0.130194  Min(alpha.water) = -2.72242e-09  Max(alpha.water) = 1
MULES: Correcting alpha.water
MULES: Correcting alpha.water
Phase-1 volume fraction = 0.130194  Min(alpha.water) = -1.08676e-06  Max(alpha.water) = 1.00001
DICPCG:  Solving for p_rgh, Initial residual = 0.0209056, Final residual = 0.000613182, No Iterations 1
time step continuity errors : sum local = 0.000299692, global = 1.26948e-09, cumulative = 0.000375099
DICPCG:  Solving for p_rgh, Initial residual = 0.000719952, Final residual = 3.44249e-05, No Iterations 13
time step continuity errors : sum local = 1.65934e-05, global = 1.41141e-06, cumulative = 0.000376511
DICPCG:  Solving for p_rgh, Initial residual = 0.000109107, Final residual = 9.54145e-08, No Iterations 44
time step continuity errors : sum local = 4.66494e-08, global = -9.98225e-10, cumulative = 0.00037651
ExecutionTime = 0.51 s  ClockTime = 1 s

Courant Number mean: 0.078574 max: 0.854042
Interface Courant Number mean: 0.0069825 max: 0.854042
deltaT = 0.00158401
Time = 0.138912

PIMPLE: iteration 1
smoothSolver:  Solving for alpha.water, Initial residual = 0.00348587, Final residual = 1.07609e-09, No Iterations 3
Phase-1 volume fraction = 0.130194  Min(alpha.water) = -2.64245e-09  Max(alpha.water) = 1
MULES: Correcting alpha.water
MULES: Correcting alpha.water
Phase-1 volume fraction = 0.130194  Min(alpha.water) = -5.04912e-07  Max(alpha.water) = 1.00001
DICPCG:  Solving for p_rgh, Initial residual = 0.0214068, Final residual = 0.000592808, No Iterations 1
time step continuity errors : sum local = 0.000296697, global = -2.34065e-08, cumulative = 0.000376486
DICPCG:  Solving for p_rgh, Initial residual = 0.000688527, Final residual = 3.33419e-05, No Iterations 13
time step continuity errors : sum local = 1.64482e-05, global = 1.20004e-06, cumulative = 0.000377686
DICPCG:  Solving for p_rgh, Initial residual = 0.000108555, Final residual = 7.45467e-08, No Iterations 48
time step continuity errors : sum local = 3.73271e-08, global = -2.19218e-09, cumulative = 0.000377684
ExecutionTime = 0.52 s  ClockTime = 1 s

Courant Number mean: 0.0790788 max: 0.868964
Interface Courant Number mean: 0.00716522 max: 0.868964
deltaT = 0.00158401
Time = 0.140496

PIMPLE: iteration 1
smoothSolver:  Solving for alpha.water, Initial residual = 0.00352612, Final residual = 1.09129e-09, No Iterations 3
Phase-1 volume fraction = 0.130194  Min(alpha.water) = -2.55459e-09  Max(alpha.water) = 1
MULES: Correcting alpha.water
MULES: Correcting alpha.water
Phase-1 volume fraction = 0.130194  Min(alpha.water) = -4.19595e-06  Max(alpha.water) = 1
DICPCG:  Solving for p_rgh, Initial residual = 0.0203536, Final residual = 0.000602106, No Iterations 1
time step continuity errors : sum local = 0.000306619, global = -1.63685e-08, cumulative = 0.000377668
DICPCG:  Solving for p_rgh, Initial residual = 0.000685674, Final residual = 3.19095e-05, No Iterations 13
time step continuity errors : sum local = 1.60325e-05, global = 1.21033e-06, cumulative = 0.000378878
DICPCG:  Solving for p_rgh, Initial residual = 0.000103318, Final residual = 8.5479e-08, No Iterations 48
time step continuity errors : sum local = 4.34807e-08, global = -2.01746e-09, cumulative = 0.000378876
ExecutionTime = 0.52 s  ClockTime = 1 s

Courant Number mean: 0.0795787 max: 0.873989
Interface Courant Number mean: 0.00761938 max: 0.873989
deltaT = 0.00158401
Time = 0.14208

PIMPLE: iteration 1
smoothSolver:  Solving for alpha.water, Initial residual = 0.00361995, Final residual = 1.10258e-09, No Iterations 3
Phase-1 volume fraction = 0.130194  Min(alpha.water) = -2.46035e-09  Max(alpha.water) = 1
MULES: Correcting alpha.water
MULES: Correcting alpha.water
Phase-1 volume fraction = 0.130194  Min(alpha.water) = -2.4137e-06  Max(alpha.water) = 1.00001
DICPCG:  Solving for p_rgh, Initial residual = 0.0214024, Final residual = 0.000520383, No Iterations 1
time step continuity errors : sum local = 0.000277313, global = -1.24834e-08, cumulative = 0.000378864
DICPCG:  Solving for p_rgh, Initial residual = 0.000605058, Final residual = 2.37831e-05, No Iterations 14
time step continuity errors : sum local = 1.24791e-05, global = 9.36316e-07, cumulative = 0.0003798
DICPCG:  Solving for p_rgh, Initial residual = 9.73634e-05, Final residual = 8.71842e-08, No Iterations 35
time step continuity errors : sum local = 4.64822e-08, global = 2.08637e-08, cumulative = 0.000379821
ExecutionTime = 0.53 s  ClockTime = 1 s

Courant Number mean: 0.0800122 max: 0.868084
Interface Courant Number mean: 0.00772458 max: 0.868084
deltaT = 0.00158401
Time = 0.143664

PIMPLE: iteration 1
smoothSolver:  Solving for alpha.water, Initial residual = 0.00367368, Final residual = 1.10264e-09, No Iterations 3
Phase-1 volume fraction = 0.130194  Min(alpha.water) = -2.36123e-09  Max(alpha.water) = 1
MULES: Correcting alpha.water
MULES: Correcting alpha.water
Phase-1 volume fraction = 0.130194  Min(alpha.water) = -3.9342e-07  Max(alpha.water) = 1.00001
DICPCG:  Solving for p_rgh, Initial residual = 0.0228677, Final residual = 0.000479879, No Iterations 1
time step continuity errors : sum local = 0.000265723, global = 3.55304e-08, cumulative = 0.000379856
DICPCG:  Solving for p_rgh, Initial residual = 0.000571227, Final residual = 1.82378e-05, No Iterations 14
time step continuity errors : sum local = 9.91413e-06, global = 7.59518e-07, cumulative = 0.000380616
DICPCG:  Solving for p_rgh, Initial residual = 8.72541e-05, Final residual = 9.95102e-08, No Iterations 33
time step continuity errors : sum local = 5.47772e-08, global = 3.03973e-09, cumulative = 0.000380619
ExecutionTime = 0.54 s  ClockTime = 1 s

Courant Number mean: 0.0804446 max: 0.870823
Interface Courant Number mean: 0.00842474 max: 0.870823
deltaT = 0.00158401
Time = 0.145248

PIMPLE: iteration 1
smoothSolver:  Solving for alpha.water, Initial residual = 0.00371454, Final residual = 1.09682e-09, No Iterations 3
Phase-1 volume fraction = 0.130194  Min(alpha.water) = -2.25849e-09  Max(alpha.water) = 1
MULES: Correcting alpha.water
MULES: Correcting alpha.water
Phase-1 volume fraction = 0.130194  Min(alpha.water) = -9.94723e-08  Max(alpha.water) = 1.00001
DICPCG:  Solving for p_rgh, Initial residual = 0.0206756, Final residual = 0.000507408, No Iterations 1
time step continuity errors : sum local = 0.000276654, global = -1.73069e-08, cumulative = 0.000380602
DICPCG:  Solving for p_rgh, Initial residual = 0.00059411, Final residual = 1.9561e-05, No Iterations 14
time step continuity errors : sum local = 1.04966e-05, global = 8.16776e-07, cumulative = 0.000381418
DICPCG:  Solving for p_rgh, Initial residual = 9.09938e-05, Final residual = 9.87452e-08, No Iterations 46
time step continuity errors : sum local = 5.35521e-08, global = -1.73036e-09, cumulative = 0.000381417
ExecutionTime = 0.55 s  ClockTime = 1 s

Courant Number mean: 0.0808404 max: 0.857976
Interface Courant Number mean: 0.00815247 max: 0.857976
deltaT = 0.00158401
Time = 0.146832

PIMPLE: iteration 1
smoothSolver:  Solving for alpha.water, Initial residual = 0.00374205, Final residual = 1.11375e-09, No Iterations 3
Phase-1 volume fraction = 0.130194  Min(alpha.water) = -2.15325e-09  Max(alpha.water) = 1
MULES: Correcting alpha.water
MULES: Correcting alpha.water
Phase-1 volume fraction = 0.130194  Min(alpha.water) = -5.90058e-08  Max(alpha.water) = 1.00002
DICPCG:  Solving for p_rgh, Initial residual = 0.0206852, Final residual = 0.000518125, No Iterations 1
time step continuity errors : sum local = 0.000281654, global = -1.14161e-08, cumulative = 0.000381405
DICPCG:  Solving for p_rgh, Initial residual = 0.000609651, Final residual = 1.99556e-05, No Iterations 14
time step continuity errors : sum local = 1.068e-05, global = 1.34412e-06, cumulative = 0.000382749
DICPCG:  Solving for p_rgh, Initial residual = 9.04009e-05, Final residual = 9.67446e-08, No Iterations 48
time step continuity errors : sum local = 5.24585e-08, global = -6.68775e-10, cumulative = 0.000382749
ExecutionTime = 0.56 s  ClockTime = 1 s

Courant Number mean: 0.0811461 max: 0.843364
Interface Courant Number mean: 0.0081893 max: 0.843364
deltaT = 0.00158401
Time = 0.148416

PIMPLE: iteration 1
smoothSolver:  Solving for alpha.water, Initial residual = 0.00379956, Final residual = 1.12655e-09, No Iterations 3
Phase-1 volume fraction = 0.130194  Min(alpha.water) = -2.04675e-09  Max(alpha.water) = 1
MULES: Correcting alpha.water
MULES: Correcting alpha.water
Phase-1 volume fraction = 0.130194  Min(alpha.water) = -7.52241e-08  Max(alpha.water) = 1.00012
DICPCG:  Solving for p_rgh, Initial residual = 0.0193023, Final residual = 0.0005268, No Iterations 1
time step continuity errors : sum local = 0.000284844, global = -1.792e-08, cumulative = 0.000382731
DICPCG:  Solving for p_rgh, Initial residual = 0.000630423, Final residual = 2.87709e-05, No Iterations 10
time step continuity errors : sum local = 1.53307e-05, global = 1.72641e-07, cumulative = 0.000382903
DICPCG:  Solving for p_rgh, Initial residual = 9.55508e-05, Final residual = 7.67779e-08, No Iterations 48
time step continuity errors : sum local = 4.13393e-08, global = -8.79754e-10, cumulative = 0.000382903
ExecutionTime = 0.57 s  ClockTime = 1 s

Courant Number mean: 0.0814099 max: 0.836655
Interface Courant Number mean: 0.00834225 max: 0.836655
deltaT = 0.00158401
Time = 0.15

PIMPLE: iteration 1
smoothSolver:  Solving for alpha.water, Initial residual = 0.00384272, Final residual = 1.13717e-09, No Iterations 3
Phase-1 volume fraction = 0.130194  Min(alpha.water) = -2.02227e-09  Max(alpha.water) = 1
MULES: Correcting alpha.water
MULES: Correcting alpha.water
Phase-1 volume fraction = 0.130194  Min(alpha.water) = -5.02249e-08  Max(alpha.water) = 1.00007
DICPCG:  Solving for p_rgh, Initial residual = 0.0179191, Final residual = 0.000550674, No Iterations 1
time step continuity errors : sum local = 0.000297497, global = -3.78931e-09, cumulative = 0.000382899
DICPCG:  Solving for p_rgh, Initial residual = 0.000644468, Final residual = 3.16218e-05, No Iterations 9
time step continuity errors : sum local = 1.68641e-05, global = 6.27722e-08, cumulative = 0.000382961
DICPCG:  Solving for p_rgh, Initial residual = 9.88315e-05, Final residual = 7.85979e-08, No Iterations 44
time step continuity errors : sum local = 4.22455e-08, global = 3.23085e-09, cumulative = 0.000382965
ExecutionTime = 0.59 s  ClockTime = 1 s

Courant Number mean: 0.0816204 max: 0.827819
Interface Courant Number mean: 0.00881627 max: 0.827819
deltaT = 0.00172414
Time = 0.151724

PIMPLE: iteration 1
smoothSolver:  Solving for alpha.water, Initial residual = 0.0042815, Final residual = 1.93625e-09, No Iterations 3
Phase-1 volume fraction = 0.130194  Min(alpha.water) = -1.99563e-09  Max(alpha.water) = 1
MULES: Correcting alpha.water
MULES: Correcting alpha.water
Phase-1 volume fraction = 0.130194  Min(alpha.water) = -5.55983e-08  Max(alpha.water) = 1.00006
DICPCG:  Solving for p_rgh, Initial residual = 0.0194519, Final residual = 0.000600152, No Iterations 1
time step continuity errors : sum local = 0.000385062, global = 7.51085e-09, cumulative = 0.000382972
DICPCG:  Solving for p_rgh, Initial residual = 0.000697441, Final residual = 3.06328e-05, No Iterations 9
time step continuity errors : sum local = 1.93719e-05, global = 6.55152e-08, cumulative = 0.000383038
DICPCG:  Solving for p_rgh, Initial residual = 0.000115051, Final residual = 8.02028e-08, No Iterations 47
time step continuity errors : sum local = 5.10706e-08, global = -3.71538e-09, cumulative = 0.000383034
ExecutionTime = 0.6 s  ClockTime = 1 s

Courant Number mean: 0.0890729 max: 0.901374
Interface Courant Number mean: 0.00958406 max: 0.901374
deltaT = 0.00185676
Time = 0.153581

PIMPLE: iteration 1
smoothSolver:  Solving for alpha.water, Initial residual = 0.00467289, Final residual = 3.05655e-09, No Iterations 3
Phase-1 volume fraction = 0.130194  Min(alpha.water) = -1.95498e-09  Max(alpha.water) = 1
MULES: Correcting alpha.water
MULES: Correcting alpha.water
Phase-1 volume fraction = 0.130194  Min(alpha.water) = -6.10196e-08  Max(alpha.water) = 1
DICPCG:  Solving for p_rgh, Initial residual = 0.0183636, Final residual = 0.000648809, No Iterations 1
time step continuity errors : sum local = 0.000477927, global = -1.5249e-08, cumulative = 0.000383019
DICPCG:  Solving for p_rgh, Initial residual = 0.000756137, Final residual = 3.08012e-05, No Iterations 8
time step continuity errors : sum local = 2.24016e-05, global = -1.20478e-08, cumulative = 0.000383007
DICPCG:  Solving for p_rgh, Initial residual = 0.000127381, Final residual = 8.2232e-08, No Iterations 48
time step continuity errors : sum local = 6.00761e-08, global = -1.78365e-09, cumulative = 0.000383005
ExecutionTime = 0.61 s  ClockTime = 1 s

Courant Number mean: 0.0963309 max: 0.969882
Interface Courant Number mean: 0.0105265 max: 0.969882
deltaT = 0.00185676
Time = 0.155438

PIMPLE: iteration 1
smoothSolver:  Solving for alpha.water, Initial residual = 0.0047266, Final residual = 3.09298e-09, No Iterations 3
Phase-1 volume fraction = 0.130194  Min(alpha.water) = -1.90408e-09  Max(alpha.water) = 1
MULES: Correcting alpha.water
MULES: Correcting alpha.water
Phase-1 volume fraction = 0.130194  Min(alpha.water) = -0.00010621  Max(alpha.water) = 1
DICPCG:  Solving for p_rgh, Initial residual = 0.0181914, Final residual = 0.000598272, No Iterations 1
time step continuity errors : sum local = 0.000445906, global = -1.04228e-09, cumulative = 0.000383004
DICPCG:  Solving for p_rgh, Initial residual = 0.000708692, Final residual = 2.99562e-05, No Iterations 8
time step continuity errors : sum local = 2.20379e-05, global = -1.98362e-08, cumulative = 0.000382984
DICPCG:  Solving for p_rgh, Initial residual = 0.000122316, Final residual = 9.26593e-08, No Iterations 48
time step continuity errors : sum local = 6.84562e-08, global = -4.52758e-09, cumulative = 0.00038298
ExecutionTime = 0.62 s  ClockTime = 1 s

Courant Number mean: 0.0967027 max: 0.950336
Interface Courant Number mean: 0.0106588 max: 0.950336
deltaT = 0.00193749
Time = 0.157375

PIMPLE: iteration 1
smoothSolver:  Solving for alpha.water, Initial residual = 0.00503835, Final residual = 3.96802e-09, No Iterations 3
Phase-1 volume fraction = 0.130194  Min(alpha.water) = -1.84174e-09  Max(alpha.water) = 1
MULES: Correcting alpha.water
MULES: Correcting alpha.water
Phase-1 volume fraction = 0.130194  Min(alpha.water) = -2.11456e-06  Max(alpha.water) = 1
DICPCG:  Solving for p_rgh, Initial residual = 0.0187656, Final residual = 0.000648287, No Iterations 1
time step continuity errors : sum local = 0.000531125, global = -6.7019e-09, cumulative = 0.000382973
DICPCG:  Solving for p_rgh, Initial residual = 0.000753267, Final residual = 3.3898e-05, No Iterations 8
time step continuity errors : sum local = 2.74649e-05, global = -2.11464e-08, cumulative = 0.000382952
DICPCG:  Solving for p_rgh, Initial residual = 0.000131065, Final residual = 9.45063e-08, No Iterations 49
time step continuity errors : sum local = 7.69554e-08, global = -5.18557e-09, cumulative = 0.000382947
ExecutionTime = 0.63 s  ClockTime = 1 s

Courant Number mean: 0.101218 max: 0.96202
Interface Courant Number mean: 0.011573 max: 0.96202
deltaT = 0.00193749
Time = 0.159313

PIMPLE: iteration 1
smoothSolver:  Solving for alpha.water, Initial residual = 0.00511243, Final residual = 3.95227e-09, No Iterations 3
Phase-1 volume fraction = 0.130194  Min(alpha.water) = -1.77182e-09  Max(alpha.water) = 1
MULES: Correcting alpha.water
MULES: Correcting alpha.water
Phase-1 volume fraction = 0.130194  Min(alpha.water) = -3.67291e-07  Max(alpha.water) = 1.00002
DICPCG:  Solving for p_rgh, Initial residual = 0.0215806, Final residual = 0.000595003, No Iterations 1
time step continuity errors : sum local = 0.00051184, global = 4.8543e-10, cumulative = 0.000382947
DICPCG:  Solving for p_rgh, Initial residual = 0.000688543, Final residual = 3.32619e-05, No Iterations 10
time step continuity errors : sum local = 2.82152e-05, global = 9.6892e-08, cumulative = 0.000383044
DICPCG:  Solving for p_rgh, Initial residual = 0.000120519, Final residual = 6.15995e-08, No Iterations 50
time step continuity errors : sum local = 5.26097e-08, global = -2.46457e-09, cumulative = 0.000383041
ExecutionTime = 0.64 s  ClockTime = 1 s

Courant Number mean: 0.101276 max: 0.933656
Interface Courant Number mean: 0.0118723 max: 0.933656
deltaT = 0.00203437
Time = 0.161347

PIMPLE: iteration 1
smoothSolver:  Solving for alpha.water, Initial residual = 0.00541646, Final residual = 5.16532e-09, No Iterations 3
Phase-1 volume fraction = 0.130194  Min(alpha.water) = -1.69195e-09  Max(alpha.water) = 1
MULES: Correcting alpha.water
MULES: Correcting alpha.water
Phase-1 volume fraction = 0.130194  Min(alpha.water) = -9.80494e-07  Max(alpha.water) = 1.00002
DICPCG:  Solving for p_rgh, Initial residual = 0.0222007, Final residual = 0.00057105, No Iterations 1
[...]
ExecutionTime = 5.02 s  ClockTime = 6 s

Courant Number mean: 0.148765 max: 0.849732
Interface Courant Number mean: 0.0311083 max: 0.56243
deltaT = 0.00238095
Time = 0.952381

PIMPLE: iteration 1
smoothSolver:  Solving for alpha.water, Initial residual = 0.00671659, Final residual = 3.18943e-09, No Iterations 3
Phase-1 volume fraction = 0.127486  Min(alpha.water) = -2.59169e-11  Max(alpha.water) = 1
MULES: Correcting alpha.water
MULES: Correcting alpha.water
Phase-1 volume fraction = 0.127486  Min(alpha.water) = -3.13926e-05  Max(alpha.water) = 1
DICPCG:  Solving for p_rgh, Initial residual = 0.0255474, Final residual = 0.000423435, No Iterations 2
time step continuity errors : sum local = 0.000354916, global = 4.34372e-08, cumulative = 0.00312446
DICPCG:  Solving for p_rgh, Initial residual = 0.000598285, Final residual = 2.61469e-05, No Iterations 9
time step continuity errors : sum local = 2.17437e-05, global = -8.42399e-07, cumulative = 0.00312362
DICPCG:  Solving for p_rgh, Initial residual = 0.000123181, Final residual = 7.86452e-08, No Iterations 49
time step continuity errors : sum local = 6.55896e-08, global = -2.20982e-09, cumulative = 0.00312362
ExecutionTime = 5.03 s  ClockTime = 6 s

Courant Number mean: 0.160257 max: 0.89315
Interface Courant Number mean: 0.0334898 max: 0.60519
deltaT = 0.0026455
Time = 0.955026

PIMPLE: iteration 1
smoothSolver:  Solving for alpha.water, Initial residual = 0.00756534, Final residual = 5.69455e-09, No Iterations 3
Phase-1 volume fraction = 0.127486  Min(alpha.water) = -2.54485e-11  Max(alpha.water) = 1
MULES: Correcting alpha.water
MULES: Correcting alpha.water
Phase-1 volume fraction = 0.127486  Min(alpha.water) = -3.23874e-05  Max(alpha.water) = 1
DICPCG:  Solving for p_rgh, Initial residual = 0.0237054, Final residual = 0.000477062, No Iterations 2
time step continuity errors : sum local = 0.000472242, global = 5.54471e-08, cumulative = 0.00312367
DICPCG:  Solving for p_rgh, Initial residual = 0.0006677, Final residual = 3.08558e-05, No Iterations 20
time step continuity errors : sum local = 3.02273e-05, global = -3.10692e-06, cumulative = 0.00312056
DICPCG:  Solving for p_rgh, Initial residual = 0.000147086, Final residual = 9.53433e-08, No Iterations 50
time step continuity errors : sum local = 9.36488e-08, global = -5.29645e-10, cumulative = 0.00312056
ExecutionTime = 5.03 s  ClockTime = 6 s

Courant Number mean: 0.1782 max: 0.961986
Interface Courant Number mean: 0.0368002 max: 0.676776
deltaT = 0.0026455
Time = 0.957672

PIMPLE: iteration 1
smoothSolver:  Solving for alpha.water, Initial residual = 0.00757068, Final residual = 5.41149e-09, No Iterations 3
Phase-1 volume fraction = 0.127486  Min(alpha.water) = -2.49721e-11  Max(alpha.water) = 1
MULES: Correcting alpha.water
MULES: Correcting alpha.water
Phase-1 volume fraction = 0.127486  Min(alpha.water) = -2.31353e-05  Max(alpha.water) = 1
DICPCG:  Solving for p_rgh, Initial residual = 0.0243109, Final residual = 0.000457307, No Iterations 2
time step continuity errors : sum local = 0.000455536, global = 9.76804e-08, cumulative = 0.00312066
DICPCG:  Solving for p_rgh, Initial residual = 0.000633228, Final residual = 2.77883e-05, No Iterations 9
time step continuity errors : sum local = 2.73957e-05, global = -1.36481e-06, cumulative = 0.0031193
DICPCG:  Solving for p_rgh, Initial residual = 0.000133885, Final residual = 7.95137e-08, No Iterations 50
time step continuity errors : sum local = 7.85039e-08, global = -1.03881e-08, cumulative = 0.00311929
ExecutionTime = 5.04 s  ClockTime = 6 s

Courant Number mean: 0.178297 max: 0.928351
Interface Courant Number mean: 0.0367242 max: 0.646658
deltaT = 0.00282187
Time = 0.960494

PIMPLE: iteration 1
smoothSolver:  Solving for alpha.water, Initial residual = 0.00804922, Final residual = 7.54633e-09, No Iterations 3
Phase-1 volume fraction = 0.127486  Min(alpha.water) = -2.44568e-11  Max(alpha.water) = 1
MULES: Correcting alpha.water
MULES: Correcting alpha.water
Phase-1 volume fraction = 0.127486  Min(alpha.water) = -3.2953e-05  Max(alpha.water) = 1
DICPCG:  Solving for p_rgh, Initial residual = 0.0252529, Final residual = 0.000461863, No Iterations 2
time step continuity errors : sum local = 0.000509855, global = 5.68615e-08, cumulative = 0.00311934
DICPCG:  Solving for p_rgh, Initial residual = 0.000667883, Final residual = 2.85445e-05, No Iterations 10
time step continuity errors : sum local = 3.1152e-05, global = -1.44211e-08, cumulative = 0.00311933
DICPCG:  Solving for p_rgh, Initial residual = 0.000143686, Final residual = 9.01264e-08, No Iterations 49
time step continuity errors : sum local = 9.85517e-08, global = -8.4405e-10, cumulative = 0.00311933
ExecutionTime = 5.05 s  ClockTime = 6 s

Courant Number mean: 0.190176 max: 0.958687
Interface Courant Number mean: 0.0384904 max: 0.690893
deltaT = 0.00282187
Time = 0.963316

PIMPLE: iteration 1
smoothSolver:  Solving for alpha.water, Initial residual = 0.00802573, Final residual = 7.35693e-09, No Iterations 3
Phase-1 volume fraction = 0.127486  Min(alpha.water) = -2.39359e-11  Max(alpha.water) = 1
MULES: Correcting alpha.water
MULES: Correcting alpha.water
Phase-1 volume fraction = 0.127486  Min(alpha.water) = -3.65098e-05  Max(alpha.water) = 1
DICPCG:  Solving for p_rgh, Initial residual = 0.0268644, Final residual = 0.000526118, No Iterations 2
time step continuity errors : sum local = 0.000578115, global = 4.91089e-08, cumulative = 0.00311938
DICPCG:  Solving for p_rgh, Initial residual = 0.000722574, Final residual = 3.0637e-05, No Iterations 10
time step continuity errors : sum local = 3.32476e-05, global = 3.23348e-07, cumulative = 0.0031197
DICPCG:  Solving for p_rgh, Initial residual = 0.000150641, Final residual = 7.37533e-08, No Iterations 51
time step continuity errors : sum local = 8.01923e-08, global = 8.17323e-09, cumulative = 0.00311971
ExecutionTime = 5.06 s  ClockTime = 6 s

Courant Number mean: 0.190181 max: 0.932878
Interface Courant Number mean: 0.0385849 max: 0.714487
deltaT = 0.00282187
Time = 0.966138

PIMPLE: iteration 1
smoothSolver:  Solving for alpha.water, Initial residual = 0.00801795, Final residual = 7.29754e-09, No Iterations 3
Phase-1 volume fraction = 0.127486  Min(alpha.water) = -5.97643e-09  Max(alpha.water) = 1
MULES: Correcting alpha.water
MULES: Correcting alpha.water
Phase-1 volume fraction = 0.127486  Min(alpha.water) = -3.73835e-05  Max(alpha.water) = 1
DICPCG:  Solving for p_rgh, Initial residual = 0.0296991, Final residual = 0.000526113, No Iterations 2
time step continuity errors : sum local = 0.000581532, global = 2.40451e-08, cumulative = 0.00311973
DICPCG:  Solving for p_rgh, Initial residual = 0.000734742, Final residual = 3.28496e-05, No Iterations 27
time step continuity errors : sum local = 3.57818e-05, global = -5.96094e-06, cumulative = 0.00311377
DICPCG:  Solving for p_rgh, Initial residual = 0.000159163, Final residual = 9.73967e-08, No Iterations 50
time step continuity errors : sum local = 1.06601e-07, global = -1.42107e-08, cumulative = 0.00311376
ExecutionTime = 5.07 s  ClockTime = 6 s

Courant Number mean: 0.190186 max: 0.903677
Interface Courant Number mean: 0.0386716 max: 0.734642
deltaT = 0.0030784
Time = 0.969216

PIMPLE: iteration 1
smoothSolver:  Solving for alpha.water, Initial residual = 0.00874234, Final residual = 1.37739e-10, No Iterations 4
Phase-1 volume fraction = 0.127486  Min(alpha.water) = -5.21933e-09  Max(alpha.water) = 1
MULES: Correcting alpha.water
MULES: Correcting alpha.water
Phase-1 volume fraction = 0.127486  Min(alpha.water) = -0.000123022  Max(alpha.water) = 1
DICPCG:  Solving for p_rgh, Initial residual = 0.0283587, Final residual = 0.000537404, No Iterations 2
time step continuity errors : sum local = 0.000688364, global = 2.59718e-07, cumulative = 0.00311402
DICPCG:  Solving for p_rgh, Initial residual = 0.000745532, Final residual = 3.7255e-05, No Iterations 27
time step continuity errors : sum local = 4.699e-05, global = -8.28858e-06, cumulative = 0.00310573
DICPCG:  Solving for p_rgh, Initial residual = 0.000169184, Final residual = 9.11059e-08, No Iterations 50
time step continuity errors : sum local = 1.15569e-07, global = 3.59496e-09, cumulative = 0.00310573
ExecutionTime = 5.08 s  ClockTime = 6 s

Courant Number mean: 0.207591 max: 0.952617
Interface Courant Number mean: 0.0420027 max: 0.81479
deltaT = 0.0030784
Time = 0.972294

PIMPLE: iteration 1
smoothSolver:  Solving for alpha.water, Initial residual = 0.0087418, Final residual = 1.34974e-10, No Iterations 4
Phase-1 volume fraction = 0.127486  Min(alpha.water) = -4.51639e-09  Max(alpha.water) = 1
MULES: Correcting alpha.water
MULES: Correcting alpha.water
Phase-1 volume fraction = 0.127486  Min(alpha.water) = -0.000220266  Max(alpha.water) = 1
DICPCG:  Solving for p_rgh, Initial residual = 0.0286548, Final residual = 0.000628651, No Iterations 2
time step continuity errors : sum local = 0.000807751, global = 3.58126e-07, cumulative = 0.00310609
DICPCG:  Solving for p_rgh, Initial residual = 0.000825109, Final residual = 3.68291e-05, No Iterations 28
time step continuity errors : sum local = 4.66609e-05, global = -1.05484e-05, cumulative = 0.00309554
DICPCG:  Solving for p_rgh, Initial residual = 0.000183217, Final residual = 9.82007e-08, No Iterations 51
time step continuity errors : sum local = 1.2522e-07, global = 1.95567e-09, cumulative = 0.00309554
ExecutionTime = 5.09 s  ClockTime = 6 s

Courant Number mean: 0.20767 max: 0.920622
Interface Courant Number mean: 0.0416386 max: 0.753883
deltaT = 0.0030784
Time = 0.975373

PIMPLE: iteration 1
smoothSolver:  Solving for alpha.water, Initial residual = 0.00873444, Final residual = 1.37789e-10, No Iterations 4
Phase-1 volume fraction = 0.127486  Min(alpha.water) = -3.86833e-09  Max(alpha.water) = 1
MULES: Correcting alpha.water
MULES: Correcting alpha.water
Phase-1 volume fraction = 0.127486  Min(alpha.water) = -0.000260817  Max(alpha.water) = 1
DICPCG:  Solving for p_rgh, Initial residual = 0.028549, Final residual = 0.000588009, No Iterations 2
time step continuity errors : sum local = 0.000756395, global = 3.93179e-07, cumulative = 0.00309594
DICPCG:  Solving for p_rgh, Initial residual = 0.000778175, Final residual = 3.50118e-05, No Iterations 10
time step continuity errors : sum local = 4.44508e-05, global = 1.78955e-06, cumulative = 0.00309773
DICPCG:  Solving for p_rgh, Initial residual = 0.000164749, Final residual = 8.45702e-08, No Iterations 52
time step continuity errors : sum local = 1.07839e-07, global = -1.93312e-09, cumulative = 0.00309772
ExecutionTime = 5.1 s  ClockTime = 6 s

Courant Number mean: 0.207775 max: 0.885025
Interface Courant Number mean: 0.0416925 max: 0.775578
deltaT = 0.0030784
Time = 0.978451

PIMPLE: iteration 1
smoothSolver:  Solving for alpha.water, Initial residual = 0.00876374, Final residual = 1.45149e-10, No Iterations 4
Phase-1 volume fraction = 0.127486  Min(alpha.water) = -3.27248e-09  Max(alpha.water) = 1
MULES: Correcting alpha.water
MULES: Correcting alpha.water
Phase-1 volume fraction = 0.127486  Min(alpha.water) = -0.000281907  Max(alpha.water) = 1
DICPCG:  Solving for p_rgh, Initial residual = 0.0301437, Final residual = 0.000555293, No Iterations 2
time step continuity errors : sum local = 0.000718086, global = -1.8027e-07, cumulative = 0.00309754
DICPCG:  Solving for p_rgh, Initial residual = 0.000759679, Final residual = 3.44477e-05, No Iterations 10
time step continuity errors : sum local = 4.38903e-05, global = 6.37277e-07, cumulative = 0.00309818
DICPCG:  Solving for p_rgh, Initial residual = 0.000166486, Final residual = 9.59575e-08, No Iterations 52
time step continuity errors : sum local = 1.23045e-07, global = -7.81796e-09, cumulative = 0.00309817
ExecutionTime = 5.11 s  ClockTime = 6 s

Courant Number mean: 0.208019 max: 0.865234
Interface Courant Number mean: 0.0423719 max: 0.788819
deltaT = 0.0030784
Time = 0.98153

PIMPLE: iteration 1
smoothSolver:  Solving for alpha.water, Initial residual = 0.00869837, Final residual = 1.5505e-10, No Iterations 4
Phase-1 volume fraction = 0.127486  Min(alpha.water) = -2.72883e-09  Max(alpha.water) = 1
MULES: Correcting alpha.water
MULES: Correcting alpha.water
Phase-1 volume fraction = 0.127486  Min(alpha.water) = -0.000488205  Max(alpha.water) = 1
DICPCG:  Solving for p_rgh, Initial residual = 0.0289615, Final residual = 0.000706161, No Iterations 2
time step continuity errors : sum local = 0.000908435, global = -1.86474e-07, cumulative = 0.00309799
DICPCG:  Solving for p_rgh, Initial residual = 0.000911502, Final residual = 4.22668e-05, No Iterations 9
time step continuity errors : sum local = 5.36358e-05, global = 1.0482e-06, cumulative = 0.00309903
DICPCG:  Solving for p_rgh, Initial residual = 0.000198125, Final residual = 8.94344e-08, No Iterations 53
time step continuity errors : sum local = 1.14038e-07, global = -4.60457e-09, cumulative = 0.00309903
ExecutionTime = 5.12 s  ClockTime = 6 s

Courant Number mean: 0.208412 max: 0.855464
Interface Courant Number mean: 0.0424326 max: 0.730591
deltaT = 0.0030784
Time = 0.984608

PIMPLE: iteration 1
smoothSolver:  Solving for alpha.water, Initial residual = 0.00874679, Final residual = 1.75336e-10, No Iterations 4
Phase-1 volume fraction = 0.127486  Min(alpha.water) = -2.22626e-09  Max(alpha.water) = 1
MULES: Correcting alpha.water
MULES: Correcting alpha.water
Phase-1 volume fraction = 0.127486  Min(alpha.water) = -0.000296681  Max(alpha.water) = 1
DICPCG:  Solving for p_rgh, Initial residual = 0.0288101, Final residual = 0.000614867, No Iterations 2
time step continuity errors : sum local = 0.000783931, global = -3.37e-07, cumulative = 0.00309869
DICPCG:  Solving for p_rgh, Initial residual = 0.000811187, Final residual = 3.74963e-05, No Iterations 10
time step continuity errors : sum local = 4.71758e-05, global = 3.72726e-06, cumulative = 0.00310242
DICPCG:  Solving for p_rgh, Initial residual = 0.00017839, Final residual = 7.98947e-08, No Iterations 53
time step continuity errors : sum local = 1.00811e-07, global = 7.08233e-11, cumulative = 0.00310242
ExecutionTime = 5.13 s  ClockTime = 6 s

Courant Number mean: 0.208797 max: 0.869346
Interface Courant Number mean: 0.0423681 max: 0.749045
deltaT = 0.0030784
Time = 0.987686

PIMPLE: iteration 1
smoothSolver:  Solving for alpha.water, Initial residual = 0.00882129, Final residual = 2.00555e-10, No Iterations 4
Phase-1 volume fraction = 0.127486  Min(alpha.water) = -1.76628e-09  Max(alpha.water) = 1
MULES: Correcting alpha.water
MULES: Correcting alpha.water
Phase-1 volume fraction = 0.127486  Min(alpha.water) = -0.000283358  Max(alpha.water) = 1
DICPCG:  Solving for p_rgh, Initial residual = 0.0254094, Final residual = 0.000595343, No Iterations 2
time step continuity errors : sum local = 0.000755947, global = -5.47254e-07, cumulative = 0.00310187
DICPCG:  Solving for p_rgh, Initial residual = 0.000777111, Final residual = 3.33327e-05, No Iterations 10
time step continuity errors : sum local = 4.18997e-05, global = 2.02051e-06, cumulative = 0.00310389
DICPCG:  Solving for p_rgh, Initial residual = 0.000159951, Final residual = 7.98438e-08, No Iterations 52
time step continuity errors : sum local = 1.00795e-07, global = -4.49857e-09, cumulative = 0.00310389
ExecutionTime = 5.14 s  ClockTime = 6 s

Courant Number mean: 0.209267 max: 0.892636
Interface Courant Number mean: 0.0427285 max: 0.759899
deltaT = 0.0030784
Time = 0.990765

PIMPLE: iteration 1
smoothSolver:  Solving for alpha.water, Initial residual = 0.00878803, Final residual = 2.356e-10, No Iterations 4
Phase-1 volume fraction = 0.127486  Min(alpha.water) = -1.34759e-09  Max(alpha.water) = 1
MULES: Correcting alpha.water
MULES: Correcting alpha.water
Phase-1 volume fraction = 0.127486  Min(alpha.water) = -0.000264459  Max(alpha.water) = 1
DICPCG:  Solving for p_rgh, Initial residual = 0.0286178, Final residual = 0.000727483, No Iterations 2
time step continuity errors : sum local = 0.000935732, global = -5.76434e-07, cumulative = 0.00310331
DICPCG:  Solving for p_rgh, Initial residual = 0.000935967, Final residual = 3.84107e-05, No Iterations 10
time step continuity errors : sum local = 4.87748e-05, global = 3.45181e-06, cumulative = 0.00310676
DICPCG:  Solving for p_rgh, Initial residual = 0.000205128, Final residual = 7.301e-08, No Iterations 54
time step continuity errors : sum local = 9.3125e-08, global = -3.24829e-09, cumulative = 0.00310676
ExecutionTime = 5.15 s  ClockTime = 6 s

Courant Number mean: 0.209826 max: 0.911807
Interface Courant Number mean: 0.0434263 max: 0.710369
deltaT = 0.0030784
Time = 0.993843

PIMPLE: iteration 1
smoothSolver:  Solving for alpha.water, Initial residual = 0.00878371, Final residual = 2.7767e-10, No Iterations 4
Phase-1 volume fraction = 0.127486  Min(alpha.water) = -9.64397e-10  Max(alpha.water) = 1
MULES: Correcting alpha.water
MULES: Correcting alpha.water
Phase-1 volume fraction = 0.127486  Min(alpha.water) = -0.000243277  Max(alpha.water) = 1
DICPCG:  Solving for p_rgh, Initial residual = 0.0274557, Final residual = 0.000641091, No Iterations 2
time step continuity errors : sum local = 0.000820474, global = -8.35077e-07, cumulative = 0.00310593
DICPCG:  Solving for p_rgh, Initial residual = 0.00084973, Final residual = 4.02907e-05, No Iterations 11
time step continuity errors : sum local = 5.1068e-05, global = 3.93519e-06, cumulative = 0.00310986
DICPCG:  Solving for p_rgh, Initial residual = 0.000185567, Final residual = 6.69479e-08, No Iterations 54
time step continuity errors : sum local = 8.54442e-08, global = 5.4855e-10, cumulative = 0.00310986
ExecutionTime = 5.16 s  ClockTime = 6 s

Courant Number mean: 0.210322 max: 0.926837
Interface Courant Number mean: 0.0431713 max: 0.719315
deltaT = 0.0030784
Time = 0.996922

PIMPLE: iteration 1
smoothSolver:  Solving for alpha.water, Initial residual = 0.00879333, Final residual = 3.25216e-10, No Iterations 4
Phase-1 volume fraction = 0.127486  Min(alpha.water) = -7.7634e-10  Max(alpha.water) = 1
MULES: Correcting alpha.water
MULES: Correcting alpha.water
Phase-1 volume fraction = 0.127486  Min(alpha.water) = -0.000224008  Max(alpha.water) = 1
DICPCG:  Solving for p_rgh, Initial residual = 0.0251757, Final residual = 0.000552783, No Iterations 2
time step continuity errors : sum local = 0.000715504, global = -1.0093e-06, cumulative = 0.00310885
DICPCG:  Solving for p_rgh, Initial residual = 0.000718063, Final residual = 3.04594e-05, No Iterations 10
time step continuity errors : sum local = 3.91396e-05, global = 1.71528e-06, cumulative = 0.00311057
DICPCG:  Solving for p_rgh, Initial residual = 0.000149892, Final residual = 7.76714e-08, No Iterations 53
time step continuity errors : sum local = 1.0046e-07, global = -8.29823e-10, cumulative = 0.00311057
ExecutionTime = 5.17 s  ClockTime = 6 s

Courant Number mean: 0.210741 max: 0.940718
Interface Courant Number mean: 0.0430234 max: 0.727462
deltaT = 0.0030784
Time = 1

PIMPLE: iteration 1
smoothSolver:  Solving for alpha.water, Initial residual = 0.00870125, Final residual = 3.80707e-10, No Iterations 4
Phase-1 volume fraction = 0.127486  Min(alpha.water) = -6.25529e-10  Max(alpha.water) = 1
MULES: Correcting alpha.water
MULES: Correcting alpha.water
Phase-1 volume fraction = 0.127486  Min(alpha.water) = -0.000206687  Max(alpha.water) = 1
DICPCG:  Solving for p_rgh, Initial residual = 0.0260901, Final residual = 0.000793212, No Iterations 2
time step continuity errors : sum local = 0.00103132, global = -1.07107e-06, cumulative = 0.0031095
DICPCG:  Solving for p_rgh, Initial residual = 0.000994916, Final residual = 4.20829e-05, No Iterations 10
time step continuity errors : sum local = 5.4208e-05, global = 5.55646e-06, cumulative = 0.00311505
DICPCG:  Solving for p_rgh, Initial residual = 0.000214687, Final residual = 7.00953e-08, No Iterations 54
time step continuity errors : sum local = 9.07185e-08, global = -3.75553e-09, cumulative = 0.00311505
ExecutionTime = 5.18 s  ClockTime = 6 s

End

