/*---------------------------------------------------------------------------*\
  =========                 |
  \\      /  F ield         | OpenFOAM: The Open Source CFD Toolbox
   \\    /   O peration     | Website:  https://openfoam.org
    \\  /    A nd           | Version:  6
     \\/     M anipulation  |
\*---------------------------------------------------------------------------*/
Build  : 6-71f2e7b5a2bc
Exec   : blockMesh
Date   : Jun 20 2019
Time   : 15:22:19
Host   : "raspberrypi"
PID    : 7207
I/O    : uncollated
Case   : /home/pi/OpenFOAM/OpenFOAM-6/tutorials/mesh/blockMesh/wr-cube
nProcs : 1
sigFpe : Enabling floating point exception trapping (FOAM_SIGFPE).
fileModificationChecking : Monitoring run-time modified files using timeStampMaster (fileModificationSkew 10)
allowSystemOperations : Allowing user-supplied system call operations

// * * * * * * * * * * * * * * * * * * * * * * * * * * * * * * * * * * * * * //
Create time

Overriding DebugSwitches according to controlDict
Deleting polyMesh directory
    "/home/pi/OpenFOAM/OpenFOAM-6/tutorials/mesh/blockMesh/wr-cube/constant/polyMesh"
Creating block mesh from
    "/home/pi/OpenFOAM/OpenFOAM-6/tutorials/mesh/blockMesh/wr-cube/system/blockMeshDict"


--> FOAM FATAL IO ERROR: 
Cannot find surface monkey in geometry

file: /home/pi/OpenFOAM/OpenFOAM-6/tutorials/mesh/blockMesh/wr-cube/system/blockMeshDict.vertices at line 23.

    From function Foam::blockVertices::projectVertex::projectVertex(const Foam::dictionary&, Foam::label, const Foam::searchableSurfaces&, Foam::Istream&)
    in file blockVertices/projectVertex/projectVertex.C at line 65.

FOAM exiting

